#------------------------------------------------------------------------------
#$Date: 2016-02-18 17:37:37 +0200 (Thu, 18 Feb 2016) $
#$Revision: 176729 $
#$URL: svn://www.crystallography.net/cod/cif/1/51/18/1511816.cif $
#------------------------------------------------------------------------------
#
# This file is available in the Crystallography Open Database (COD),
# http://www.crystallography.net/
#
# All data on this site have been placed in the public domain by the
# contributors.
#
data_1511816
loop_
_publ_author_name
'Jarzembska, Katarzyna N.'
'Kami\'nski, Rados\/law'
'Wenger, Emmanuel'
'Lecomte, Claude'
'Dominiak, Paulina M.'
_publ_section_title
;
 Interplay between Charge Density Distribution, Crystal Structure
 Energetic Features, and Crystal Morphology of 6-Methyl-2-thiouracil
;
_journal_issue                   15
_journal_name_full               'The Journal of Physical Chemistry C'
_journal_page_first              7764
_journal_paper_doi               10.1021/jp312158m
_journal_volume                  117
_journal_year                    2013
_chemical_formula_moiety         'C5 H6 N2 O S'
_chemical_formula_sum            'C5 H6 N2 O S'
_chemical_formula_weight         142.18
_space_group_IT_number           14
_symmetry_cell_setting           monoclinic
_symmetry_Int_Tables_number      14
_symmetry_space_group_name_Hall  '-P 2ybc'
_symmetry_space_group_name_H-M   'P 1 21/c 1'
_cell_angle_alpha                90.00
_cell_angle_beta                 91.170(6)
_cell_angle_gamma                90.00
_cell_formula_units_Z            4
_cell_length_a                   4.3135(7)
_cell_length_b                   14.432(3)
_cell_length_c                   9.5548(18)
_cell_measurement_temperature    10(1)
_cell_volume                     594.69(19)
_diffrn_ambient_temperature      10(1)
_diffrn_measured_fraction_theta_full 0.98
_diffrn_measured_fraction_theta_max 0.89
_diffrn_measurement_device
;
 Experimental setup as described by
 Fertey, R.: (2007) J. Appl. Cryst. 40, 526-531
;
_diffrn_measurement_device_type  'APEX II CCD detector'
_diffrn_measurement_method       '\w- and \f scans'
_diffrn_radiation_monochromator  graphite
_diffrn_radiation_source         'sealed tube'
_diffrn_radiation_type           'Mo K\a'
_diffrn_radiation_wavelength     0.71073
_diffrn_reflns_av_R_equivalents  0.0498
_diffrn_reflns_av_sigmaI/netI    0.0492
_diffrn_reflns_limit_h_max       10
_diffrn_reflns_limit_h_min       -10
_diffrn_reflns_limit_k_max       35
_diffrn_reflns_limit_k_min       -34
_diffrn_reflns_limit_l_max       22
_diffrn_reflns_limit_l_min       -19
_diffrn_reflns_number            39616
_diffrn_reflns_theta_full        42.56
_diffrn_reflns_theta_max         62.579
_diffrn_reflns_theta_min         2.557
_exptl_absorpt_coefficient_mu    0.447
_exptl_absorpt_correction_T_max  1.095
_exptl_absorpt_correction_T_min  0.907
_exptl_absorpt_correction_type   multi-scan
_exptl_absorpt_process_details
;
 Absorption correction done by SORTAV
 Blessing, R. H.: (1995) Acta Cryst. A51, 33-38
;
_exptl_crystal_colour            yellow
_exptl_crystal_density_diffrn    1.588
_exptl_crystal_description       prism
_exptl_crystal_F_000             296
_exptl_crystal_size_max          0.19
_exptl_crystal_size_mid          0.12
_exptl_crystal_size_min          0.11
_refine_diff_density_max         +0.84
_refine_diff_density_min         -0.73
_refine_ls_extinction_method     none
_refine_ls_goodness_of_fit_ref   0.880
_refine_ls_hydrogen_treatment    mixed
_refine_ls_number_parameters     231
_refine_ls_number_reflns         6304
_refine_ls_number_restraints     6
_refine_ls_R_factor_all          0.0217
_refine_ls_R_factor_gt           0.0217
_refine_ls_shift/su_max          0.001
_refine_ls_shift/su_mean         0.000
_refine_ls_structure_factor_coef F
_refine_ls_weighting_details
;
w=1/[\s^2^(Fo)]
;
_refine_ls_weighting_scheme      sigma
_refine_ls_wR_factor_gt          0.0223
_refine_ls_wR_factor_ref         0.0223
_reflns_number_gt                6304
_reflns_number_total             8699
_reflns_threshold_expression     I>3\s(I)
_iucr_refine_instructions_details
;
Multipole refinement with MOPRO program.
;
_cod_data_source_file            jp312158m_si_003.cif
_cod_data_source_block           6m2tU_10K
_cod_original_cell_volume        594.69(18)
_cod_original_sg_symbol_H-M      'P 21/c'
_cod_database_code               1511816
loop_
_symmetry_equiv_pos_as_xyz
'x, y, z'
'-x, y+1/2, -z+1/2'
'-x, -y, -z'
'x, -y-1/2, z-1/2'
loop_
_atom_site_type_symbol
_atom_site_label
_atom_site_fract_x
_atom_site_fract_y
_atom_site_fract_z
_atom_site_U_iso_or_equiv
_atom_site_adp_type
_atom_site_occupancy
_atom_site_calc_flag
S S2 0.69186(2) 0.441061(1) 0.165479(1) 0.00570(1) Uani 1 d
O O4 1.36513(6) 0.30800(2) -0.19186(3) 0.00763(4) Uani 1 d
N N1 0.75660(5) 0.26157(2) 0.10983(3) 0.00556(3) Uani 1 d
N N3 1.04852(5) 0.36004(2) -0.02345(3) 0.00576(4) Uani 1 d
C C4 1.17652(5) 0.28851(2) -0.10043(3) 0.00540(4) Uani 1 d
C C2 0.83943(5) 0.35020(2) 0.08022(3) 0.00498(4) Uani 1 d
C C5 1.07381(6) 0.19716(2) -0.06534(3) 0.00605(4) Uani 1 d
C C6 0.86780(5) 0.18567(2) 0.03948(3) 0.00536(4) Uani 1 d
C C7 0.75384(6) 0.09297(2) 0.08533(4) 0.00759(4) Uani 1 d
H H1 0.605(1) 0.2517(7) 0.1904(5) 0.01993 Uani 1 d
H H3 1.123(2) 0.4257(2) -0.048(1) 0.01998 Uani 1 d
H H7A 0.5166(6) 0.0956(7) 0.1172(9) 0.02862 Uani 1 d
H H7B 0.776(3) 0.0426(4) 0.0029(5) 0.02833 Uani 1 d
H H7C 0.891(2) 0.0696(6) 0.1734(5) 0.02839 Uani 1 d
H H5 1.159(2) 0.1378(3) -0.1221(7) 0.02089 Uani 1 d
loop_
_atom_site_aniso_label
_atom_site_aniso_U_11
_atom_site_aniso_U_22
_atom_site_aniso_U_33
_atom_site_aniso_U_12
_atom_site_aniso_U_13
_atom_site_aniso_U_23
S2 0.00656(2) 0.00396(2) 0.00661(3) 0.00047(1) 0.00157(2) -0.00060(2)
O4 0.00819(6) 0.00677(9) 0.00807(9) -0.00019(5) 0.00415(8) 0.00008(6)
N1 0.00630(5) 0.00393(7) 0.00650(9) -0.00026(5) 0.00203(7) -0.00009(6)
N3 0.00644(6) 0.00422(7) 0.00667(9) -0.00030(5) 0.00229(7) -0.00024(6)
C4 0.00567(6) 0.00483(7) 0.00575(9) -0.00005(5) 0.00162(6) -0.00007(6)
C2 0.00531(6) 0.00413(7) 0.00554(9) -0.000026(5) 0.00105(6) -0.00027(6)
C5 0.00681(6) 0.00453(8) 0.00686(10) -0.00010(5) 0.00197(7) -0.00049(6)
C6 0.00588(6) 0.00403(7) 0.00619(9) -0.00013(5) 0.00116(6) -0.000031(6)
C7 0.00873(7) 0.00462(8) 0.0095(1) -0.00055(6) 0.00205(7) 0.00036(6)
H1 0.0234 0.0170 0.0198 -0.0015 0.0118 0.0006
H3 0.0248 0.0108 0.0246 -0.0035 0.0089 0.0009
H7A 0.0173 0.0237 0.0452 0.0002 0.0120 0.0038
H7B 0.0432 0.0178 0.0241 -0.0041 0.0085 -0.0082
H7C 0.0331 0.0251 0.0266 -0.0029 -0.0099 0.0092
H5 0.0260 0.0137 0.0232 0.0026 0.0081 -0.0057
loop_
_atom_type_symbol
_atom_type_description
_atom_type_scat_dispersion_real
_atom_type_scat_dispersion_imag
_atom_type_scat_source
C C 0.0033 0.0016 'Su & Coppens, Acta. Cryst. (1997) A53, 749'
H H 0.0000 0.0000 'Su & Coppens, Acta. Cryst. (1997) A53, 749'
N N 0.0061 0.0033 'Su & Coppens, Acta. Cryst. (1997) A53, 749'
O O 0.0106 0.0060 'Su & Coppens, Acta. Cryst. (1997) A53, 749'
loop_
_geom_angle_atom_site_label_1
_geom_angle_atom_site_label_2
_geom_angle_atom_site_label_3
_geom_angle
S2 C2 N1 122.11(3)
S2 C2 N3 122.39(3)
O4 C4 N3 118.58(3)
O4 C4 C5 125.80(4)
N1 C2 N3 115.50(3)
N1 C6 C5 120.03(3)
N1 C6 C7 116.75(3)
N3 C4 C5 115.63(3)
C4 N3 C2 125.75(3)
C4 N3 H3 115.8(5)
C4 C5 C6 119.56(3)
C4 C5 H5 120.1(4)
C2 N1 C6 123.51(3)
C2 N1 H1 117.4(6)
C2 N3 H3 118.4(5)
C5 C6 C7 123.22(3)
C6 N1 H1 119.1(6)
C6 C5 H5 120.4(4)
C6 C7 H7B 110.9(4)
C6 C7 H7C 109.2(5)
C6 C7 H7A 111.8(5)
H7A C7 H7B 108.9(8)
H7A C7 H7C 107.9(6)
H7B C7 H7C 107.9(6)
loop_
_geom_bond_atom_site_label_1
_geom_bond_atom_site_label_2
_geom_bond_distance
S2 C2 1.6763(3)
O4 C4 1.2379(4)
N1 C2 1.3601(4)
N1 C6 1.3767(4)
N1 H1 1.030(1)
N3 C2 1.3601(4)
N3 C4 1.3886(4)
N3 H3 1.030(1)
C4 C5 1.4336(4)
C5 C6 1.3621(4)
C5 H5 1.083(1)
C6 C7 1.4946(4)
C7 H7B 1.077(1)
C7 H7C 1.077(1)
C7 H7A 1.077(1)
loop_
_geom_torsion_atom_site_label_1
_geom_torsion_atom_site_label_2
_geom_torsion_atom_site_label_3
_geom_torsion_atom_site_label_4
_geom_torsion
S2 C2 N1 C6 178.37(2)
S2 C2 N1 H1 -2.6(6)
S2 C2 N3 C4 -178.73(2)
S2 C2 N3 H3 2.0(5)
O4 C4 N3 C2 -179.92(3)
O4 C4 N3 H3 -0.6(5)
O4 C4 C5 C6 179.03(3)
O4 C4 C5 H5 -1.1(4)
N1 C2 N3 C4 0.98(2)
N1 C2 N3 H3 -178.3(1)
N1 C6 C5 C4 0.81(2)
N1 C6 C5 H5 -179.04(8)
N1 C6 C7 H7B 157.2(5)
N1 C6 C7 H7C -84.0(5)
N1 C6 C7 H7A 35.4(5)
N3 C2 N1 C6 -1.34(2)
N3 C2 N1 H1 177.7(1)
N3 C4 C5 C6 -1.11(2)
N3 C4 C5 H5 178.7(2)
C4 C5 C6 C7 -178.53(3)
C2 N1 C6 C5 0.49(3)
C2 N1 C6 C7 179.86(3)
C2 N3 C4 C5 0.21(3)
C5 C4 N3 H3 179.50(8)
C5 C6 N1 H1 -178.57(9)
C5 C6 C7 H7B -23.5(5)
C5 C6 C7 H7C 95.3(4)
C5 C6 C7 H7A -145.3(5)
C7 C6 N1 H1 0.8(6)
C7 C6 C5 H5 1.6(4)
loop_
_refln_index_h
_refln_index_k
_refln_index_l
_refln_F_squared_calc
_refln_F_squared_meas
_refln_F_squared_sigma
_refln_observed_status
-10 0 2 33.67 35.80 2.96 o
-10 0 6 60.54 63.14 4.46 o
-10 0 8 64.61 65.69 7.62 o
-10 1 3 21.78 22.24 1.26 o
-10 1 4 53.83 55.90 2.27 o
-10 1 5 12.00 13.36 1.15 o
-10 1 6 9.47 9.69 1.29 o
-10 1 8 7.77 9.96 2.45 o
-10 2 1 5.38 5.16 1.11 o
-10 2 2 34.86 34.55 1.83 o
-10 2 3 23.05 21.24 1.45 o
-10 2 6 10.21 12.66 1.45 o
-10 2 7 83.95 88.13 3.69 o
-10 3 3 13.54 12.51 1.23 o
-10 3 4 9.66 8.27 1.29 o
-10 3 5 8.50 9.03 1.23 o
-10 3 6 9.90 10.99 1.83 o
-10 3 8 28.83 30.58 2.58 o
-10 4 1 59.97 63.48 2.57 o
-10 4 2 7.60 5.75 1.16 o
-10 4 3 17.37 15.27 1.35 o
-10 4 4 5.82 6.21 1.38 o
-10 4 5 14.45 12.58 1.38 o
-10 5 2 5.35 5.65 1.24 o
-10 5 3 16.11 16.63 1.36 o
-10 5 4 67.84 68.56 2.92 o
-10 5 7 10.99 12.80 1.89 o
-10 5 8 8.53 6.37 1.92 o
-10 6 1 32.08 32.30 2.07 o
-10 6 2 20.62 20.83 1.59 o
-10 6 3 50.97 54.73 2.51 o
-10 6 4 12.07 11.86 1.37 o
-10 6 5 17.59 18.73 1.51 o
-10 6 6 34.93 35.11 2.35 o
-10 6 7 24.38 24.91 3.76 o
-10 7 1 23.14 22.39 1.61 o
-10 7 2 27.98 28.26 1.77 o
-10 7 4 3.00 4.41 1.31 o
-10 7 5 7.20 7.28 1.75 o
-10 8 4 6.61 5.29 1.30 o
-10 8 6 12.51 12.36 1.70 o
-10 8 7 8.18 7.16 1.77 o
-10 9 2 18.20 18.75 1.52 o
-10 9 3 24.24 22.84 1.76 o
-10 9 4 9.87 9.57 1.51 o
-10 9 5 35.40 33.93 2.86 o
-10 9 6 12.80 11.56 1.74 o
-10 10 2 80.87 78.91 3.10 o
-10 10 6 24.37 23.25 2.89 o
-10 11 1 38.74 42.01 2.43 o
-10 11 3 22.49 28.78 3.88 o
-10 11 4 13.24 14.87 2.15 o
-10 11 5 23.80 23.13 2.90 o
-10 12 1 16.57 16.86 1.63 o
-10 12 2 8.18 7.04 1.44 o
-10 13 1 21.06 17.72 2.55 o
-10 13 2 22.07 17.18 3.99 o
-9 0 2 9.30 8.69 1.38 o
-9 0 4 61.10 64.35 2.97 o
-9 0 8 66.16 68.11 3.31 o
-9 0 10 108.62 113.11 4.52 o
-9 0 12 85.96 84.82 4.74 o
-9 1 1 7.94 6.50 1.38 o
-9 1 2 145.66 150.00 5.43 o
-9 1 5 27.41 27.48 1.58 o
-9 1 6 88.73 90.62 2.97 o
-9 1 7 30.25 31.36 1.71 o
-9 1 8 13.41 14.72 1.28 o
-9 1 10 12.41 15.00 1.48 o
-9 1 11 50.60 49.82 2.48 o
-9 1 12 7.59 9.06 1.46 o
-9 2 1 49.04 47.27 2.15 o
-9 2 2 62.71 64.49 2.87 o
-9 2 3 4.38 3.80 0.94 o
-9 2 4 78.74 82.17 3.15 o
-9 2 5 52.44 55.14 2.26 o
-9 2 7 5.11 4.85 1.53 o
-9 2 8 14.97 16.51 1.44 o
-9 2 9 124.27 129.16 4.13 o
-9 2 11 7.00 7.85 1.34 o
-9 2 12 48.67 51.44 4.42 o
-9 2 13 9.55 11.55 3.55 o
-9 3 1 132.02 135.35 5.33 o
-9 3 4 6.79 7.40 0.95 o
-9 3 5 11.62 11.97 1.05 o
-9 3 6 14.34 15.04 1.21 o
-9 3 7 13.02 12.77 1.36 o
-9 3 8 15.95 16.74 2.14 o
-9 3 9 8.69 7.35 1.37 o
-9 3 10 19.77 19.62 1.82 o
-9 3 12 12.55 10.49 1.79 o
-9 4 2 17.60 16.13 1.18 o
-9 4 3 94.94 98.63 3.34 o
-9 4 4 13.12 11.06 1.18 o
-9 4 5 17.47 16.18 1.24 o
-9 4 6 9.51 10.34 1.49 o
-9 4 7 12.38 10.31 1.68 o
-9 4 11 96.63 103.92 6.49 o
-9 4 13 90.81 98.13 6.72 o
-9 5 1 32.15 32.46 2.20 o
-9 5 2 53.04 57.42 2.51 o
-9 5 5 7.30 6.94 1.21 o
-9 5 6 120.36 126.63 4.42 o
-9 5 9 31.25 30.48 2.54 o
-9 5 12 61.96 56.81 3.18 o
-9 6 2 16.87 14.37 1.31 o
-9 6 3 57.89 58.40 3.04 o
-9 6 4 59.22 60.81 2.67 o
-9 6 5 95.74 101.23 3.60 o
-9 6 6 13.99 13.16 1.48 o
-9 6 7 19.23 19.48 1.83 o
-9 6 8 47.76 46.30 4.01 o
-9 6 9 29.50 29.63 2.43 o
-9 6 12 8.15 8.28 1.82 o
-9 7 1 77.93 78.97 3.70 o
-9 7 2 32.96 33.56 1.74 o
-9 7 3 23.57 21.06 1.58 o
-9 7 4 27.00 25.69 1.79 o
-9 7 5 4.61 5.18 1.27 o
-9 7 7 17.81 17.42 1.80 o
-9 7 10 28.30 26.66 2.24 o
-9 7 11 20.89 20.90 2.65 o
-9 7 12 22.31 24.21 2.46 o
-9 8 1 5.68 4.60 1.20 o
-9 8 2 94.71 97.19 4.25 o
-9 8 8 10.73 6.82 1.66 o
-9 8 10 43.69 46.93 2.89 o
-9 9 1 29.75 28.57 1.58 o
-9 9 2 109.57 110.75 3.70 o
-9 9 4 23.43 23.43 1.55 o
-9 9 5 36.36 34.62 2.01 o
-9 9 6 13.84 12.93 1.43 o
-9 9 7 60.34 56.77 3.10 o
-9 9 8 16.94 14.86 1.75 o
-9 9 9 12.75 11.77 1.71 o
-9 9 10 98.62 100.26 4.28 o
-9 9 11 9.61 9.75 1.65 o
-9 10 1 53.12 54.28 2.54 o
-9 10 4 155.36 163.97 4.96 o
-9 10 6 8.66 8.38 1.35 o
-9 10 8 42.11 45.69 2.84 o
-9 10 10 21.67 21.72 2.48 o
-9 10 11 31.06 30.81 2.55 o
-9 11 2 7.47 6.79 1.34 o
-9 11 3 60.47 59.17 2.71 o
-9 11 4 3.10 4.09 1.23 o
-9 11 5 37.82 39.42 2.25 o
-9 11 6 17.87 16.60 1.92 o
-9 11 7 26.84 24.62 2.04 o
-9 11 8 45.46 46.53 2.82 o
-9 11 9 12.47 12.93 1.70 o
-9 11 10 67.29 64.50 3.09 o
-9 11 11 31.58 29.65 2.52 o
-9 12 1 18.81 16.98 1.48 o
-9 12 2 16.55 17.29 1.86 o
-9 12 3 40.31 43.96 2.65 o
-9 12 4 17.93 16.99 1.35 o
-9 12 5 17.95 17.59 1.63 o
-9 12 7 30.36 32.51 2.54 o
-9 12 8 7.50 6.22 1.62 o
-9 12 9 86.54 88.91 3.60 o
-9 12 10 18.39 17.24 1.80 o
-9 13 2 10.11 8.73 1.42 o
-9 13 3 25.60 24.87 1.87 o
-9 13 4 12.72 14.31 1.51 o
-9 13 6 31.29 33.05 3.26 o
-9 13 7 27.69 27.58 2.28 o
-9 13 8 13.31 12.03 1.65 o
-9 13 9 14.32 15.02 1.70 o
-9 13 10 16.96 17.29 2.72 o
-9 14 1 33.71 31.76 2.77 o
-9 14 3 47.59 47.46 3.61 o
-9 14 5 21.47 24.69 2.22 o
-9 14 6 6.70 7.08 1.44 o
-9 14 9 20.54 20.63 5.22 o
-9 15 2 34.89 35.89 2.36 o
-9 15 4 20.89 20.56 3.05 o
-9 15 5 46.98 47.54 3.17 o
-9 15 8 9.90 9.34 2.27 o
-9 16 2 23.53 24.32 3.56 o
-9 16 3 5.37 7.36 1.70 o
-9 16 4 21.18 19.72 1.88 o
-9 16 6 12.58 11.18 1.72 o
-9 16 7 15.65 15.91 2.42 o
-9 17 1 72.23 75.77 6.91 o
-9 17 2 19.00 18.02 2.17 o
-9 17 5 22.00 22.87 2.19 o
-9 18 2 78.00 79.26 5.60 o
-9 18 4 13.80 11.75 3.12 o
-9 19 1 27.15 23.56 4.55 o
-8 0 6 92.85 96.63 4.92 o
-8 0 10 55.18 55.12 3.34 o
-8 0 12 159.19 167.01 5.83 o
-8 0 14 71.51 64.72 6.29 o
-8 1 1 150.12 145.88 5.10 o
-8 1 2 20.27 18.69 1.12 o
-8 1 3 8.22 7.75 0.86 o
-8 1 4 250.43 253.87 7.57 o
-8 1 5 10.60 9.79 0.90 o
-8 1 6 3.65 3.35 0.86 o
-8 1 7 30.87 30.93 2.39 o
-8 1 8 121.01 125.60 4.02 o
-8 1 9 63.63 68.75 2.76 o
-8 1 10 20.27 22.21 1.43 o
-8 1 12 19.52 20.02 1.40 o
-8 1 13 56.10 58.03 2.63 o
-8 1 14 21.55 21.98 1.83 o
-8 1 15 34.49 31.45 3.73 o
-8 2 1 91.41 94.52 3.47 o
-8 2 2 23.56 22.79 1.13 o
-8 2 3 56.29 58.22 2.50 o
-8 2 4 50.90 51.47 1.95 o
-8 2 5 3.00 2.87 0.85 o
-8 2 6 141.78 152.60 4.31 o
-8 2 7 105.46 106.21 3.80 o
-8 2 9 12.41 13.91 1.55 o
-8 2 10 16.72 19.92 1.88 o
-8 2 11 157.03 157.77 4.98 o
-8 2 13 5.08 4.01 1.30 o
-8 2 14 73.98 72.91 6.23 o
-8 2 15 8.31 9.50 1.99 o
-8 3 2 168.71 168.89 4.95 o
-8 3 3 269.51 278.37 8.50 o
-8 3 6 14.20 14.13 1.19 o
-8 3 7 6.58 6.62 1.12 o
-8 3 8 14.71 15.76 1.70 o
-8 3 9 16.94 17.39 1.39 o
-8 3 10 23.66 24.58 1.90 o
-8 3 11 22.91 23.01 1.60 o
-8 3 12 5.95 7.69 1.58 o
-8 3 14 25.67 24.57 3.02 o
-8 4 1 10.24 10.21 0.95 o
-8 4 2 19.28 18.03 1.08 o
-8 4 4 27.47 25.87 1.21 o
-8 4 5 120.87 125.41 3.61 o
-8 4 6 16.88 16.05 1.42 o
-8 4 7 9.10 10.28 1.17 o
-8 4 8 13.24 14.42 1.33 o
-8 4 9 8.22 8.24 1.25 o
-8 4 11 15.33 14.24 1.90 o
-8 4 13 107.17 107.45 4.91 o
-8 4 15 69.87 68.17 6.36 o
-8 5 1 25.96 24.52 1.33 o
-8 5 2 35.22 34.54 1.90 o
-8 5 3 57.70 59.69 3.93 o
-8 5 4 115.43 117.65 4.38 o
-8 5 6 4.50 3.97 1.10 o
-8 5 8 180.14 181.72 6.08 o
-8 5 9 7.89 8.15 1.38 o
-8 5 11 55.85 56.22 3.82 o
-8 5 13 10.75 9.71 1.81 o
-8 5 14 73.37 73.65 5.24 o
-8 5 15 10.59 9.95 2.69 o
-8 6 1 98.14 101.99 3.95 o
-8 6 2 68.13 68.40 3.59 o
-8 6 4 20.44 18.30 1.80 o
-8 6 5 100.67 103.74 3.72 o
-8 6 6 121.15 123.26 4.03 o
-8 6 7 147.66 153.16 5.42 o
-8 6 8 13.32 13.75 1.67 o
-8 6 9 16.89 17.51 1.76 o
-8 6 10 48.69 50.49 3.07 o
-8 6 11 26.32 26.55 2.73 o
-8 6 13 12.07 11.71 2.63 o
-8 6 14 22.91 21.63 5.44 o
-8 7 1 4.63 6.35 1.10 o
-8 7 2 47.98 52.00 2.34 o
-8 7 3 111.25 113.11 4.04 o
-8 7 4 43.99 46.78 2.47 o
-8 7 5 16.18 14.25 1.56 o
-8 7 6 13.69 14.40 1.29 o
-8 7 7 6.39 5.16 1.36 o
-8 7 9 37.82 37.76 3.00 o
-8 7 10 24.53 23.19 1.88 o
-8 7 12 23.13 25.07 2.06 o
-8 7 13 16.55 17.50 2.10 o
-8 7 14 17.02 15.40 1.88 o
-8 7 15 100.18 88.53 10.11 o
-8 8 2 18.76 16.55 1.31 o
-8 8 3 7.79 7.53 1.21 o
-8 8 4 179.71 180.95 5.95 o
-8 8 10 7.21 5.51 1.61 o
-8 8 12 87.00 86.82 4.90 o
-8 9 1 50.72 49.94 3.18 o
-8 9 3 53.17 57.08 4.42 o
-8 9 4 171.48 172.70 5.20 o
-8 9 5 13.46 13.76 1.33 o
-8 9 6 24.34 23.59 1.44 o
-8 9 7 47.42 47.10 2.98 o
-8 9 8 13.85 12.65 2.06 o
-8 9 9 85.02 84.82 3.74 o
-8 9 10 16.67 16.36 1.75 o
-8 9 11 6.26 6.63 1.63 o
-8 9 12 117.53 117.70 8.87 o
-8 9 13 8.79 7.84 1.66 o
-8 9 15 18.34 16.64 2.60 o
-8 10 1 45.16 46.66 2.27 o
-8 10 3 67.04 70.29 3.51 o
-8 10 6 265.77 274.09 8.86 o
-8 10 7 13.62 10.91 1.59 o
-8 10 8 31.16 28.96 1.97 o
-8 10 9 3.68 5.06 1.60 o
-8 10 10 67.32 65.93 3.33 o
-8 10 12 20.72 20.52 2.33 o
-8 10 13 48.22 47.69 4.11 o
-8 11 1 23.79 21.21 2.05 o
-8 11 2 58.21 57.21 2.72 o
-8 11 3 16.96 16.51 1.35 o
-8 11 5 76.56 79.99 3.12 o
-8 11 7 51.68 55.51 4.04 o
-8 11 8 22.14 22.02 1.82 o
-8 11 9 24.05 26.49 2.70 o
-8 11 10 63.38 64.67 3.80 o
-8 11 11 25.44 24.66 2.14 o
-8 11 12 60.68 58.74 3.03 o
-8 11 13 29.54 29.77 3.25 o
-8 11 14 34.08 29.97 3.24 o
-8 12 2 28.34 28.58 1.51 o
-8 12 3 36.10 34.36 2.05 o
-8 12 4 24.88 24.80 1.48 o
-8 12 5 73.57 72.57 3.51 o
-8 12 6 26.89 25.45 1.55 o
-8 12 7 31.25 34.52 2.68 o
-8 12 9 34.11 36.45 2.71 o
-8 12 10 11.73 12.60 2.01 o
-8 12 11 118.91 123.20 8.13 o
-8 12 12 31.03 28.77 2.27 o
-8 12 13 5.65 4.81 1.59 o
-8 13 1 9.72 8.71 1.17 o
-8 13 2 111.59 115.12 4.17 o
-8 13 4 15.02 14.71 1.59 o
-8 13 5 28.56 28.19 1.55 o
-8 13 8 55.76 58.71 3.24 o
-8 13 9 31.10 30.85 2.51 o
-8 13 10 32.06 30.84 2.56 o
-8 13 11 22.73 22.49 1.83 o
-8 13 12 20.74 21.61 1.89 o
-8 13 13 17.67 16.86 1.75 o
-8 14 1 143.47 150.13 5.45 o
-8 14 2 61.78 61.93 3.40 o
-8 14 3 32.43 28.94 1.70 o
-8 14 5 84.84 87.88 3.88 o
-8 14 6 4.37 4.96 1.43 o
-8 14 7 28.58 27.75 1.86 o
-8 14 8 10.64 11.72 1.69 o
-8 14 11 14.16 15.20 1.67 o
-8 14 12 22.07 22.04 3.15 o
-8 14 13 17.82 19.51 2.79 o
-8 15 1 33.08 32.86 1.94 o
-8 15 2 37.66 36.00 2.30 o
-8 15 4 61.29 62.72 2.67 o
-8 15 5 5.45 4.31 1.42 o
-8 15 6 21.54 21.59 1.67 o
-8 15 7 67.59 68.77 2.96 o
-8 15 10 21.68 19.75 1.73 o
-8 15 12 20.55 20.35 1.94 o
-8 16 2 28.86 29.59 2.11 o
-8 16 3 6.97 8.06 1.23 o
-8 16 4 35.78 35.77 2.02 o
-8 16 5 9.53 9.24 1.45 o
-8 16 6 25.27 24.42 3.02 o
-8 16 7 5.58 6.29 1.48 o
-8 16 8 4.40 4.25 1.32 o
-8 16 9 27.67 27.86 2.07 o
-8 16 10 14.06 13.21 1.58 o
-8 16 12 66.52 72.33 6.16 o
-8 17 3 143.59 142.46 5.16 o
-8 17 4 25.35 28.36 2.74 o
-8 17 5 13.90 14.81 1.54 o
-8 17 7 36.34 39.90 2.23 o
-8 17 9 104.92 108.16 4.66 o
-8 17 10 15.33 17.85 1.68 o
-8 18 1 11.80 9.91 1.80 o
-8 18 2 14.17 12.02 1.54 o
-8 18 4 74.51 76.65 4.39 o
-8 18 5 10.99 9.49 1.96 o
-8 18 6 29.00 28.58 4.34 o
-8 18 7 23.62 24.93 2.44 o
-8 18 8 27.92 26.78 2.39 o
-8 18 9 4.66 5.19 1.61 o
-8 18 10 12.58 17.55 3.12 o
-8 19 1 56.46 56.81 3.36 o
-8 19 2 43.65 47.89 5.53 o
-8 19 3 56.28 52.11 5.27 o
-8 19 5 12.78 12.43 2.60 o
-8 20 5 74.99 78.44 8.52 o
-8 21 2 22.44 19.13 3.69 o
-8 21 3 45.70 42.70 5.84 o
-8 21 4 19.83 16.41 3.47 o
-8 21 5 22.79 18.92 3.73 o
-8 21 7 9.88 9.97 3.07 o
-8 22 1 37.69 33.11 8.23 o
-8 22 3 19.06 18.29 4.39 o
-8 22 4 17.00 13.81 2.72 o
-8 22 6 17.27 16.97 3.27 o
-8 23 2 23.26 28.64 5.25 o
-8 23 4 24.34 27.46 4.26 o
-8 23 5 34.38 28.91 4.55 o
-7 0 2 94.72 93.93 4.02 o
-7 0 4 10.90 10.50 1.13 o
-7 0 6 17.12 18.09 1.90 o
-7 0 8 116.22 118.79 4.61 o
-7 0 12 33.13 32.50 2.59 o
-7 0 14 201.26 209.08 7.07 o
-7 0 16 45.02 46.24 5.19 o
-7 1 1 73.51 75.02 2.59 o
-7 1 3 217.02 219.56 6.87 o
-7 1 4 14.42 15.38 0.97 o
-7 1 5 6.61 6.28 0.78 o
-7 1 6 336.52 347.87 9.89 o
-7 1 7 45.91 48.74 2.58 o
-7 1 8 12.26 12.70 1.12 o
-7 1 9 32.44 33.30 2.17 o
-7 1 10 134.56 142.98 4.33 o
-7 1 11 106.50 107.55 3.56 o
-7 1 12 32.16 33.67 1.84 o
-7 1 13 3.90 5.34 1.29 o
-7 1 14 29.28 28.24 2.21 o
-7 1 15 51.28 49.72 2.57 o
-7 1 16 40.98 37.20 2.73 o
-7 1 17 33.59 27.94 2.41 o
-7 2 1 145.67 143.47 4.66 o
-7 2 2 160.47 160.43 4.32 o
-7 2 3 123.80 127.83 3.64 o
-7 2 4 31.72 35.01 1.75 o
-7 2 5 36.04 37.78 1.98 o
-7 2 6 29.74 30.03 1.36 o
-7 2 8 201.90 215.64 6.27 o
-7 2 9 181.25 188.21 5.80 o
-7 2 10 10.05 10.45 1.14 o
-7 2 11 18.70 18.68 1.30 o
-7 2 12 13.32 13.21 1.23 o
-7 2 13 163.87 169.10 5.14 o
-7 2 16 88.25 89.45 4.36 o
-7 3 3 20.20 20.71 1.00 o
-7 3 4 270.34 271.19 8.05 o
-7 3 5 466.05 482.45 13.23 o
-7 3 6 3.91 3.34 0.79 o
-7 3 7 3.72 3.35 1.03 o
-7 3 8 24.72 25.22 1.34 o
-7 3 10 8.86 11.23 1.36 o
-7 3 11 19.17 21.25 1.49 o
-7 3 12 34.01 34.23 2.29 o
-7 3 13 40.45 45.44 2.52 o
-7 3 16 44.46 42.13 3.95 o
-7 4 1 199.11 191.27 5.07 o
-7 4 2 3.37 4.67 1.12 o
-7 4 3 25.02 25.38 1.09 o
-7 4 4 31.14 33.09 1.41 o
-7 4 6 34.77 35.14 1.39 o
-7 4 7 124.55 125.97 4.15 o
-7 4 8 14.74 14.53 1.65 o
-7 4 10 14.15 14.02 1.32 o
-7 4 12 7.49 7.84 1.95 o
-7 4 13 36.57 35.69 2.56 o
-7 4 15 96.76 94.04 4.05 o
-7 4 17 37.70 35.03 4.15 o
-7 5 1 4.86 4.75 0.79 o
-7 5 2 14.69 16.30 1.31 o
-7 5 3 19.62 20.73 1.45 o
-7 5 4 52.30 52.65 2.43 o
-7 5 5 85.56 87.75 4.07 o
-7 5 6 212.56 223.20 6.29 o
-7 5 7 5.28 5.36 0.98 o
-7 5 10 225.72 234.99 7.75 o
-7 5 11 16.50 14.86 1.67 o
-7 5 13 70.32 74.34 4.11 o
-7 5 15 16.85 15.96 1.87 o
-7 5 16 78.40 77.67 10.04 o
-7 5 17 19.26 15.83 2.13 o
-7 6 1 38.14 42.08 2.06 o
-7 6 2 21.37 23.74 1.59 o
-7 6 3 189.25 190.92 6.36 o
-7 6 4 134.32 133.61 4.07 o
-7 6 5 6.38 7.93 1.26 o
-7 6 6 25.36 27.29 1.60 o
-7 6 7 157.20 158.14 5.45 o
-7 6 8 184.23 186.76 5.59 o
-7 6 9 191.35 194.52 6.89 o
-7 6 10 11.82 12.95 1.65 o
-7 6 11 10.87 10.52 1.45 o
-7 6 12 35.26 36.82 2.60 o
-7 6 13 16.09 17.39 2.43 o
-7 6 15 28.45 28.71 7.05 o
-7 7 1 15.89 15.86 1.11 o
-7 7 2 74.27 71.66 2.81 o
-7 7 3 8.79 6.46 1.41 o
-7 7 4 62.24 61.15 3.65 o
-7 7 5 144.34 147.84 4.38 o
-7 7 6 51.02 50.51 2.29 o
-7 7 7 5.35 4.61 1.44 o
-7 7 9 7.52 7.30 1.45 o
-7 7 11 64.45 70.32 3.77 o
-7 7 12 53.39 51.69 4.24 o
-7 7 14 13.16 9.63 1.92 o
-7 7 15 9.66 9.09 1.76 o
-7 7 16 7.51 7.82 2.46 o
-7 7 17 101.48 86.05 16.31 o
-7 8 1 31.92 31.82 1.67 o
-7 8 2 78.01 77.04 3.60 o
-7 8 4 65.96 64.63 2.97 o
-7 8 5 15.01 17.32 1.20 o
-7 8 6 281.32 280.95 8.87 o
-7 8 14 128.71 126.60 11.18 o
-7 8 17 8.55 9.12 2.02 o
-7 9 1 35.41 33.62 1.49 o
-7 9 2 7.36 6.40 0.98 o
-7 9 3 60.72 56.81 2.51 o
-7 9 5 83.80 88.99 3.11 o
-7 9 6 204.74 203.62 7.47 o
-7 9 7 35.08 36.06 2.05 o
-7 9 8 17.90 17.53 1.60 o
-7 9 9 49.90 51.96 3.04 o
-7 9 10 8.45 7.40 1.78 o
-7 9 11 101.11 102.06 4.13 o
-7 9 12 10.25 8.02 1.59 o
-7 9 14 118.84 117.33 7.46 o
-7 9 15 7.61 8.63 2.03 o
-7 9 17 28.14 26.01 2.80 o
-7 10 1 230.60 229.09 7.63 o
-7 10 2 192.92 193.22 5.82 o
-7 10 3 60.33 59.23 2.90 o
-7 10 4 4.22 4.15 0.98 o
-7 10 5 60.65 62.46 2.83 o
-7 10 6 39.90 43.02 2.25 o
-7 10 8 401.93 405.14 15.52 o
-7 10 9 27.89 26.55 2.11 o
-7 10 10 71.27 68.03 3.39 o
-7 10 12 93.30 91.19 3.87 o
-7 10 14 15.91 17.18 1.90 o
-7 10 15 63.83 59.16 3.64 o
-7 11 3 14.84 17.86 1.56 o
-7 11 4 88.51 86.31 2.95 o
-7 11 5 77.95 80.32 2.81 o
-7 11 7 79.59 83.58 3.13 o
-7 11 9 54.09 59.10 3.16 o
-7 11 10 25.47 23.33 2.19 o
-7 11 11 17.47 16.28 1.69 o
-7 11 12 72.73 80.79 5.00 o
-7 11 13 43.35 42.52 4.58 o
-7 11 14 42.85 41.26 3.48 o
-7 11 15 23.56 22.44 2.58 o
-7 11 16 39.95 34.59 7.36 o
-7 12 1 6.93 5.96 1.00 o
-7 12 2 132.61 130.48 4.04 o
-7 12 4 35.08 34.99 2.01 o
-7 12 5 46.70 48.22 2.12 o
-7 12 6 28.41 28.25 1.46 o
-7 12 7 100.18 104.08 3.59 o
-7 12 8 27.20 26.04 2.93 o
-7 12 9 47.07 48.15 2.57 o
-7 12 11 27.46 27.08 2.03 o
-7 12 12 15.15 14.64 2.14 o
-7 12 13 150.00 152.25 8.92 o
-7 12 14 38.97 36.25 3.59 o
-7 12 15 5.97 5.87 1.80 o
-7 13 4 112.23 115.19 3.58 o
-7 13 5 9.99 10.32 1.07 o
-7 13 6 24.67 26.35 1.43 o
-7 13 7 31.21 31.29 2.04 o
-7 13 8 5.07 4.45 1.27 o
-7 13 10 87.54 89.63 3.38 o
-7 13 11 30.18 31.84 2.25 o
-7 13 12 56.04 57.19 3.01 o
-7 13 13 26.93 26.72 2.12 o
-7 13 14 22.99 23.56 2.63 o
-7 13 15 17.60 16.39 2.43 o
-7 14 1 60.32 58.63 2.45 o
-7 14 2 302.12 300.39 8.49 o
-7 14 3 272.69 271.71 7.44 o
-7 14 4 81.24 81.12 2.86 o
-7 14 5 22.78 21.50 1.50 o
-7 14 7 131.77 131.66 4.66 o
-7 14 8 11.09 12.12 1.37 o
-7 14 9 29.32 30.48 1.93 o
-7 14 10 13.13 12.36 1.39 o
-7 14 11 5.34 4.66 1.51 o
-7 14 13 5.88 6.86 1.52 o
-7 14 14 23.63 22.19 3.19 o
-7 14 15 45.03 43.28 4.88 o
-7 15 1 22.47 21.65 1.70 o
-7 15 2 3.79 3.61 1.04 o
-7 15 3 53.00 52.40 2.92 o
-7 15 4 61.66 63.25 2.53 o
-7 15 6 94.56 93.36 3.96 o
-7 15 7 11.22 10.69 1.51 o
-7 15 8 15.94 13.31 1.38 o
-7 15 9 74.68 74.39 3.38 o
-7 15 10 3.86 6.45 1.91 o
-7 15 12 33.70 31.02 2.24 o
-7 15 14 18.38 18.59 2.47 o
-7 16 1 6.59 5.77 1.24 o
-7 16 2 8.59 8.58 1.09 o
-7 16 4 57.84 61.04 2.46 o
-7 16 5 9.53 8.41 1.71 o
-7 16 6 41.70 42.08 2.40 o
-7 16 7 13.67 12.78 1.53 o
-7 16 8 32.36 31.68 2.07 o
-7 16 9 10.95 10.76 1.35 o
-7 16 11 38.34 38.54 2.23 o
-7 16 12 21.27 20.00 1.99 o
-7 16 14 84.71 82.74 11.22 o
-7 17 1 11.07 10.61 1.62 o
-7 17 3 16.69 15.00 1.46 o
-7 17 5 248.37 248.15 7.05 o
-7 17 6 27.15 27.67 2.90 o
-7 17 7 27.14 26.13 1.57 o
-7 17 9 49.04 51.20 2.48 o
-7 17 10 4.15 4.64 1.40 o
-7 17 11 101.42 98.18 3.59 o
-7 17 12 20.11 19.85 1.63 o
-7 18 2 122.71 117.88 4.26 o
-7 18 3 30.69 29.10 2.04 o
-7 18 4 20.13 19.26 1.83 o
-7 18 5 3.64 4.43 1.40 o
-7 18 6 55.39 53.50 3.85 o
-7 18 7 24.08 22.20 1.83 o
-7 18 8 49.04 49.27 4.13 o
-7 18 9 24.65 27.97 2.53 o
-7 18 10 54.96 50.42 2.95 o
-7 18 11 7.56 7.98 1.64 o
-7 18 12 14.76 15.00 1.50 o
-7 19 3 66.46 65.85 5.48 o
-7 19 4 45.42 40.83 3.88 o
-7 19 5 95.89 94.61 4.70 o
-7 19 7 16.06 16.74 1.72 o
-7 19 8 5.73 5.34 1.58 o
-7 19 11 11.79 10.70 2.55 o
-7 19 12 8.31 9.78 1.67 o
-7 19 13 49.89 47.83 5.31 o
-7 20 1 27.51 24.01 2.45 o
-7 20 5 12.01 11.32 3.01 o
-7 20 7 85.40 80.30 3.99 o
-7 20 11 22.34 23.07 3.53 o
-7 21 2 25.33 22.11 3.06 o
-7 21 4 21.85 18.90 5.45 o
-7 21 5 94.36 96.43 4.93 o
-7 21 6 32.30 29.33 4.21 o
-7 21 7 47.22 46.05 4.87 o
-7 21 8 16.14 13.13 3.20 o
-7 21 9 17.43 15.84 2.13 o
-7 21 10 113.53 114.81 4.65 o
-7 21 11 11.94 12.20 2.96 o
-7 22 1 87.10 83.39 5.93 o
-7 22 2 45.19 40.16 10.69 o
-7 22 3 79.03 68.76 12.85 o
-7 22 5 11.42 12.13 2.13 o
-7 22 6 11.95 14.40 3.28 o
-7 22 7 13.78 13.24 3.24 o
-7 22 8 14.10 12.66 3.22 o
-7 22 9 96.42 93.39 5.90 o
-7 22 10 47.23 48.54 4.44 o
-7 23 4 48.21 42.80 4.35 o
-7 23 6 43.27 46.50 6.41 o
-7 23 7 49.49 47.09 4.74 o
-7 23 8 9.96 9.68 3.13 o
-7 23 9 27.53 26.39 4.03 o
-7 24 1 12.54 9.80 2.89 o
-7 24 8 46.77 44.41 4.48 o
-7 25 1 82.85 86.06 6.88 o
-7 25 2 24.95 24.15 2.54 o
-7 25 3 138.89 134.49 5.94 o
-7 25 5 17.49 15.55 2.69 o
-7 26 1 11.53 8.68 2.12 o
-7 26 2 108.63 104.41 5.04 o
-7 26 6 15.54 14.96 3.43 o
-7 27 2 20.35 18.41 3.60 o
-6 0 2 3.77 4.75 1.46 o
-6 0 4 164.16 157.45 4.49 o
-6 0 6 77.97 72.86 3.15 o
-6 0 8 63.67 66.45 6.85 o
-6 0 10 121.24 130.31 4.68 o
-6 0 14 13.39 12.86 3.56 o
-6 0 16 215.27 212.12 15.29 o
-6 0 18 19.82 21.06 3.80 o
-6 1 1 423.38 399.80 10.37 o
-6 1 2 17.57 17.02 0.99 o
-6 1 3 123.48 119.24 3.36 o
-6 1 5 240.46 237.07 7.00 o
-6 1 7 4.80 4.81 0.92 o
-6 1 8 353.74 370.14 13.55 o
-6 1 9 116.93 123.86 3.72 o
-6 1 10 32.85 34.88 1.96 o
-6 1 11 32.77 35.37 1.90 o
-6 1 12 121.58 122.34 3.76 o
-6 1 13 138.00 142.75 4.25 o
-6 1 14 49.43 50.13 2.26 o
-6 1 15 5.02 5.64 1.29 o
-6 1 16 40.65 37.82 2.30 o
-6 1 17 37.24 36.18 2.22 o
-6 1 18 58.79 48.78 5.27 o
-6 1 19 27.81 28.14 3.50 o
-6 2 1 4.69 3.57 0.96 o
-6 2 2 115.87 115.74 3.42 o
-6 2 3 221.35 215.74 6.46 o
-6 2 4 284.77 277.68 8.04 o
-6 2 5 141.71 146.76 3.92 o
-6 2 6 39.61 39.05 1.74 o
-6 2 7 4.94 6.17 0.92 o
-6 2 8 9.10 9.76 0.95 o
-6 2 9 3.57 3.74 0.94 o
-6 2 10 226.27 236.59 6.44 o
-6 2 11 256.32 266.02 7.18 o
-6 2 12 32.15 32.66 1.85 o
-6 2 13 19.76 18.21 1.26 o
-6 2 14 6.66 5.83 1.10 o
-6 2 15 136.81 135.17 4.49 o
-6 2 18 82.87 77.75 12.26 o
-6 2 19 7.96 7.79 1.92 o
-6 3 1 33.04 33.59 1.46 o
-6 3 2 286.06 274.06 7.11 o
-6 3 4 12.31 12.27 0.85 o
-6 3 5 51.79 51.16 1.80 o
-6 3 6 366.79 370.18 9.29 o
-6 3 7 668.71 690.56 17.85 o
-6 3 8 15.15 16.45 1.01 o
-6 3 9 4.16 4.81 0.99 o
-6 3 10 30.78 31.85 1.89 o
-6 3 13 19.50 20.32 1.52 o
-6 3 14 47.13 48.45 3.87 o
-6 3 15 52.40 48.24 2.62 o
-6 3 16 8.51 9.49 1.58 o
-6 3 18 62.11 58.59 3.55 o
-6 4 1 48.30 48.36 1.80 o
-6 4 3 252.92 244.11 6.41 o
-6 4 4 8.64 8.59 0.80 o
-6 4 5 55.43 52.74 1.79 o
-6 4 6 53.75 56.00 2.21 o
-6 4 8 38.87 40.66 3.32 o
-6 4 9 104.87 114.42 5.40 o
-6 4 10 7.49 7.54 1.10 o
-6 4 11 4.48 4.32 1.09 o
-6 4 12 10.10 9.43 1.24 o
-6 4 14 10.62 10.10 1.68 o
-6 4 15 57.15 55.08 5.08 o
-6 4 17 73.66 66.47 10.25 o
-6 4 19 11.37 11.41 2.93 o
-6 5 1 68.75 67.21 2.24 o
-6 5 2 98.72 93.60 2.85 o
-6 5 4 41.72 41.51 1.73 o
-6 5 5 5.67 5.71 1.12 o
-6 5 6 62.41 58.47 2.47 o
-6 5 7 108.44 116.62 4.64 o
-6 5 8 329.95 340.43 14.89 o
-6 5 9 17.24 18.92 2.31 o
-6 5 11 6.33 5.17 1.25 o
-6 5 12 235.51 239.73 7.21 o
-6 5 13 24.19 24.96 1.70 o
-6 5 15 65.51 63.06 3.52 o
-6 5 17 14.64 16.60 2.16 o
-6 5 18 74.23 71.97 6.72 o
-6 5 19 22.69 19.72 2.21 o
-6 6 1 2.22 2.89 0.91 o
-6 6 3 52.90 55.15 2.24 o
-6 6 4 67.92 65.23 2.93 o
-6 6 5 294.87 302.34 8.26 o
-6 6 6 217.62 226.51 5.95 o
-6 6 7 37.74 40.87 2.91 o
-6 6 8 28.92 30.07 1.68 o
-6 6 9 208.36 220.04 8.88 o
-6 6 10 214.28 220.13 7.14 o
-6 6 11 212.56 215.26 7.29 o
-6 6 12 11.52 11.74 1.62 o
-6 6 14 16.47 18.44 1.84 o
-6 6 15 5.46 5.35 1.66 o
-6 6 17 48.48 51.04 3.94 o
-6 6 18 46.13 38.44 5.72 o
-6 7 1 216.64 203.19 7.13 o
-6 7 2 229.52 223.01 5.86 o
-6 7 3 46.08 43.63 2.21 o
-6 7 4 83.76 80.72 2.77 o
-6 7 5 7.98 9.93 1.54 o
-6 7 6 71.10 71.98 2.89 o
-6 7 7 176.71 173.60 5.71 o
-6 7 8 52.99 54.55 2.49 o
-6 7 10 8.36 9.09 1.61 o
-6 7 11 7.68 6.84 1.28 o
-6 7 12 4.12 4.76 1.32 o
-6 7 13 85.22 86.98 3.97 o
-6 7 14 80.14 76.59 3.67 o
-6 7 19 88.48 80.92 8.34 o
-6 8 1 5.82 5.97 0.99 o
-6 8 2 20.46 20.30 1.37 o
-6 8 3 44.28 43.05 1.92 o
-6 8 4 94.24 96.49 4.33 o
-6 8 6 148.37 144.29 6.00 o
-6 8 7 32.63 33.37 2.27 o
-6 8 8 356.87 369.09 13.25 o
-6 8 12 5.01 6.41 1.57 o
-6 8 16 147.34 135.24 18.42 o
-6 9 1 212.89 205.60 5.44 o
-6 9 2 15.14 16.35 1.08 o
-6 9 3 78.69 79.96 3.55 o
-6 9 5 61.95 64.85 2.37 o
-6 9 6 4.00 4.17 0.89 o
-6 9 7 108.14 112.32 4.12 o
-6 9 8 180.65 186.85 6.57 o
-6 9 9 65.74 68.94 3.30 o
-6 9 10 6.31 6.83 2.13 o
-6 9 11 39.13 38.86 3.50 o
-6 9 13 104.05 106.30 4.36 o
-6 9 16 99.87 99.87 4.69 o
-6 9 19 33.33 34.18 3.69 o
-6 10 1 80.48 80.50 3.09 o
-6 10 2 164.83 163.09 5.01 o
-6 10 3 346.00 345.65 10.54 o
-6 10 4 297.41 293.58 8.75 o
-6 10 5 67.72 64.63 2.52 o
-6 10 6 3.82 3.56 0.89 o
-6 10 7 34.04 36.01 2.54 o
-6 10 8 116.90 123.22 3.88 o
-6 10 10 526.12 542.82 16.07 o
-6 10 11 42.04 41.59 2.71 o
-6 10 12 115.86 114.49 9.14 o
-6 10 13 7.39 5.07 1.63 o
-6 10 14 105.88 110.36 9.71 o
-6 10 16 9.67 7.34 1.94 o
-6 10 17 72.92 66.42 11.42 o
-6 11 1 48.42 48.52 2.52 o
-6 11 2 134.19 127.80 4.36 o
-6 11 3 33.49 32.72 1.57 o
-6 11 4 7.04 7.85 0.92 o
-6 11 5 8.86 9.07 1.31 o
-6 11 6 102.87 102.06 3.36 o
-6 11 7 174.60 179.18 4.96 o
-6 11 8 6.78 7.04 1.66 o
-6 11 9 71.36 71.35 3.42 o
-6 11 11 40.62 42.05 2.72 o
-6 11 12 27.15 25.95 1.78 o
-6 11 13 11.18 9.02 1.99 o
-6 11 14 67.77 65.39 9.50 o
-6 11 15 59.57 54.49 3.63 o
-6 11 16 21.98 23.23 2.61 o
-6 11 17 16.01 12.96 2.02 o
-6 11 18 38.43 33.94 2.95 o
-6 12 1 24.58 24.39 1.35 o
-6 12 3 3.44 3.14 0.90 o
-6 12 4 138.13 137.15 5.95 o
-6 12 5 35.10 36.22 1.70 o
-6 12 6 31.30 32.12 1.77 o
-6 12 7 41.49 44.32 1.97 o
-6 12 8 25.35 25.81 2.03 o
-6 12 9 99.07 99.45 4.51 o
-6 12 10 17.17 19.08 1.60 o
-6 12 11 62.86 60.30 2.72 o
-6 12 13 13.78 13.62 1.58 o
-6 12 14 17.15 18.25 2.42 o
-6 12 15 172.47 156.92 20.04 o
-6 13 1 10.77 12.29 0.99 o
-6 13 2 177.63 171.79 4.75 o
-6 13 4 10.25 11.08 1.22 o
-6 13 6 84.48 86.50 2.86 o
-6 13 7 27.99 30.75 2.13 o
-6 13 8 42.62 44.21 2.64 o
-6 13 9 34.88 35.62 1.86 o
-6 13 10 34.08 34.42 3.27 o
-6 13 11 5.68 6.86 1.26 o
-6 13 12 114.39 112.26 4.21 o
-6 13 13 24.94 26.08 1.92 o
-6 13 14 75.46 77.90 7.37 o
-6 13 15 23.76 21.05 4.88 o
-6 13 16 21.27 18.96 2.15 o
-6 13 17 12.07 10.29 1.92 o
-6 14 1 3.28 3.88 0.91 o
-6 14 2 8.01 8.12 1.15 o
-6 14 3 74.79 73.74 2.98 o
-6 14 4 395.56 396.39 12.28 o
-6 14 5 426.30 427.66 13.81 o
-6 14 6 85.69 88.08 2.98 o
-6 14 7 9.08 10.36 1.73 o
-6 14 8 7.48 6.56 1.30 o
-6 14 9 166.94 167.77 5.07 o
-6 14 10 22.78 22.56 1.48 o
-6 14 11 25.03 24.36 1.61 o
-6 14 12 12.28 11.50 1.32 o
-6 14 13 19.75 20.69 1.54 o
-6 14 14 7.01 9.07 2.40 o
-6 14 16 22.04 27.14 3.95 o
-6 14 17 77.71 71.78 9.18 o
-6 15 1 123.03 121.01 3.92 o
-6 15 2 82.97 82.78 3.60 o
-6 15 3 65.22 67.21 2.44 o
-6 15 5 82.54 84.32 3.11 o
-6 15 6 86.38 88.86 3.11 o
-6 15 8 129.43 130.23 4.46 o
-6 15 9 14.55 17.51 1.90 o
-6 15 10 7.77 5.84 1.33 o
-6 15 11 59.85 55.65 3.13 o
-6 15 14 38.73 38.31 4.98 o
-6 15 15 7.55 9.30 2.93 o
-6 15 16 15.40 12.19 1.80 o
-6 16 1 26.85 26.51 1.68 o
-6 16 3 13.18 11.63 1.01 o
-6 16 4 5.14 6.10 0.93 o
-6 16 6 103.69 107.44 3.63 o
-6 16 7 10.18 10.40 1.37 o
-6 16 8 37.19 36.92 2.14 o
-6 16 9 16.45 16.98 1.55 o
-6 16 10 43.87 44.11 2.81 o
-6 16 11 15.93 15.23 1.38 o
-6 16 13 42.37 44.31 4.05 o
-6 16 14 28.41 28.43 2.09 o
-6 16 16 81.43 73.64 7.78 o
-6 17 3 40.70 37.98 1.89 o
-6 17 5 35.05 34.03 1.67 o
-6 17 7 359.20 357.18 10.11 o
-6 17 8 23.71 26.63 3.16 o
-6 17 9 41.75 38.28 2.34 o
-6 17 11 52.14 55.85 2.77 o
-6 17 12 4.08 4.52 1.37 o
-6 17 13 83.17 85.60 4.23 o
-6 17 14 21.70 20.84 1.83 o
-6 18 2 133.33 135.71 4.85 o
-6 18 4 192.28 195.44 5.93 o
-6 18 5 62.86 57.90 5.15 o
-6 18 6 31.19 34.12 3.27 o
-6 18 7 6.20 5.05 1.33 o
-6 18 8 30.81 29.55 3.37 o
-6 18 9 38.96 42.36 2.90 o
-6 18 10 66.24 62.16 3.41 o
-6 18 11 18.82 19.14 1.56 o
-6 18 12 85.02 82.66 6.97 o
-6 18 13 6.98 7.61 1.38 o
-6 18 14 13.63 14.06 1.51 o
-6 18 15 6.65 8.52 1.57 o
-6 19 1 342.74 332.65 15.60 o
-6 19 2 60.44 55.39 4.77 o
-6 19 3 9.01 6.48 2.13 o
-6 19 5 67.90 71.07 4.04 o
-6 19 6 30.76 29.97 4.63 o
-6 19 7 134.81 134.95 4.49 o
-6 19 9 16.26 16.08 1.81 o
-6 19 10 4.24 4.73 1.58 o
-6 19 11 11.41 10.29 1.66 o
-6 19 13 18.03 18.90 1.83 o
-6 19 14 8.70 8.63 1.68 o
-6 19 15 55.75 50.42 5.78 o
-6 20 3 28.56 26.47 4.75 o
-6 20 4 23.52 27.04 2.30 o
-6 20 5 12.56 13.88 2.43 o
-6 20 7 9.56 8.50 1.76 o
-6 20 9 72.33 69.00 4.06 o
-6 20 14 8.00 7.22 2.15 o
-6 21 1 6.39 7.52 1.98 o
-6 21 2 186.43 177.22 8.43 o
-6 21 4 32.37 30.43 9.13 o
-6 21 6 17.20 14.99 1.69 o
-6 21 7 149.73 150.06 5.77 o
-6 21 8 46.39 47.62 3.47 o
-6 21 9 80.16 82.03 7.18 o
-6 21 10 38.98 37.78 3.34 o
-6 21 11 29.12 31.30 3.19 o
-6 21 12 127.76 131.82 5.46 o
-6 21 13 20.05 18.73 2.28 o
-6 21 14 15.19 16.69 3.37 o
-6 22 3 103.33 99.13 6.45 o
-6 22 4 42.21 38.43 3.87 o
-6 22 5 130.04 134.29 7.26 o
-6 22 9 24.14 23.48 4.57 o
-6 22 10 6.37 6.50 2.05 o
-6 22 11 109.79 108.41 13.78 o
-6 22 12 42.20 43.20 5.86 o
-6 22 13 13.57 16.03 2.19 o
-6 23 1 11.05 9.98 2.86 o
-6 23 4 12.37 13.01 2.76 o
-6 23 5 12.86 9.02 2.34 o
-6 23 6 86.25 84.35 4.99 o
-6 23 8 56.95 56.53 5.22 o
-6 23 9 56.40 54.60 5.10 o
-6 23 10 10.50 9.48 2.01 o
-6 23 11 23.80 23.68 2.28 o
-6 24 2 10.51 8.73 2.82 o
-6 24 3 28.63 24.18 3.52 o
-6 24 6 7.78 8.93 2.12 o
-6 24 10 47.98 49.11 4.65 o
-6 25 1 66.91 65.50 8.70 o
-6 25 2 18.37 14.91 2.88 o
-6 25 3 105.28 100.20 5.02 o
-6 25 4 27.65 26.93 2.53 o
-6 25 5 137.22 135.85 5.84 o
-6 25 7 19.35 18.49 3.37 o
-6 25 9 8.63 11.37 3.12 o
-6 25 10 16.29 14.07 3.13 o
-6 26 2 8.65 6.72 2.13 o
-6 26 3 24.65 22.25 3.25 o
-6 26 4 179.57 175.80 6.86 o
-6 26 6 11.42 10.13 2.54 o
-6 26 8 13.88 13.68 3.20 o
-6 26 10 87.76 84.34 5.64 o
-6 27 1 44.40 44.10 3.67 o
-6 27 2 4.91 6.44 2.09 o
-6 27 4 29.34 26.04 4.29 o
-6 27 7 79.23 82.65 5.65 o
-6 28 1 9.33 10.11 2.10 o
-6 28 3 12.25 11.03 2.10 o
-6 28 5 26.28 27.48 3.51 o
-6 28 6 48.46 44.98 4.62 o
-6 28 7 11.93 12.40 3.24 o
-6 29 1 13.37 12.29 2.33 o
-6 29 2 39.47 40.73 3.61 o
-5 0 2 112.97 107.22 4.43 o
-5 0 4 70.53 70.89 3.63 o
-5 0 6 246.42 247.36 10.23 o
-5 0 8 173.23 175.14 6.39 o
-5 0 10 103.40 105.82 7.24 o
-5 0 12 109.02 117.25 5.76 o
-5 0 18 189.94 169.54 32.65 o
-5 1 1 11.35 11.28 1.42 o
-5 1 2 400.76 376.97 10.98 o
-5 1 3 601.92 567.41 15.77 o
-5 1 5 180.32 170.27 5.80 o
-5 1 6 21.92 21.50 1.37 o
-5 1 7 201.73 200.19 5.48 o
-5 1 9 3.81 4.66 1.05 o
-5 1 10 287.47 303.40 8.32 o
-5 1 11 204.47 216.44 6.15 o
-5 1 12 67.96 72.02 2.62 o
-5 1 13 31.16 30.66 1.73 o
-5 1 14 89.85 91.58 3.45 o
-5 1 15 137.50 129.42 6.41 o
-5 1 16 67.30 63.92 5.18 o
-5 1 17 6.14 4.48 1.26 o
-5 1 18 50.27 46.46 2.42 o
-5 1 19 20.88 18.26 1.57 o
-5 1 20 67.40 57.29 5.42 o
-5 2 1 491.71 470.21 13.34 o
-5 2 2 155.90 141.75 4.47 o
-5 2 3 9.11 9.98 1.17 o
-5 2 4 134.46 134.20 4.25 o
-5 2 5 259.87 253.40 7.58 o
-5 2 6 419.54 423.56 11.01 o
-5 2 7 141.00 138.60 4.35 o
-5 2 8 46.48 46.80 1.81 o
-5 2 9 9.88 10.78 1.30 o
-5 2 11 6.93 7.70 1.24 o
-5 2 12 198.11 205.19 5.59 o
-5 2 13 292.95 298.83 7.93 o
-5 2 14 64.97 65.94 2.65 o
-5 2 15 16.14 13.38 1.35 o
-5 2 17 89.26 85.56 5.45 o
-5 2 20 61.19 57.48 7.40 o
-5 3 1 413.70 396.18 11.30 o
-5 3 2 95.73 87.24 3.04 o
-5 3 3 52.00 50.75 2.18 o
-5 3 4 453.02 431.76 12.51 o
-5 3 6 37.79 37.89 1.78 o
-5 3 7 94.71 97.81 3.31 o
-5 3 8 402.84 400.66 11.02 o
-5 3 9 782.84 813.76 22.40 o
-5 3 10 26.47 28.86 1.75 o
-5 3 12 25.24 25.74 1.77 o
-5 3 13 6.41 7.80 1.33 o
-5 3 15 18.40 19.91 2.07 o
-5 3 16 59.42 53.91 2.93 o
-5 3 17 51.47 52.70 3.66 o
-5 3 20 68.56 63.91 6.65 o
-5 4 1 782.32 723.94 20.87 o
-5 4 2 5.66 6.08 1.25 o
-5 4 3 108.99 107.32 3.57 o
-5 4 5 237.35 237.11 6.54 o
-5 4 6 21.92 22.13 1.32 o
-5 4 7 106.27 103.91 3.56 o
-5 4 8 91.05 93.81 3.28 o
-5 4 10 41.66 42.65 2.65 o
-5 4 11 72.69 77.39 2.83 o
-5 4 13 20.65 20.30 2.08 o
-5 4 17 63.86 56.55 10.37 o
-5 4 19 50.01 45.37 8.82 o
-5 5 1 243.09 237.45 7.06 o
-5 5 2 6.88 5.87 1.25 o
-5 5 3 116.48 108.66 3.63 o
-5 5 4 202.94 196.32 6.32 o
-5 5 6 87.94 86.14 3.71 o
-5 5 8 56.85 55.02 2.32 o
-5 5 9 115.72 119.25 4.54 o
-5 5 10 429.83 445.98 13.20 o
-5 5 11 41.89 42.12 3.31 o
-5 5 14 204.00 201.44 9.15 o
-5 5 15 25.78 27.66 2.32 o
-5 5 17 46.44 43.55 10.36 o
-5 5 18 7.72 9.67 2.01 o
-5 5 20 61.38 51.95 7.38 o
-5 6 4 4.91 4.95 1.00 o
-5 6 5 67.71 69.25 2.37 o
-5 6 6 142.55 141.02 4.11 o
-5 6 7 367.60 378.35 9.82 o
-5 6 8 294.35 300.23 8.29 o
-5 6 9 106.78 99.87 5.14 o
-5 6 10 27.79 28.52 2.35 o
-5 6 11 228.63 236.30 7.68 o
-5 6 12 194.71 198.00 5.88 o
-5 6 13 204.73 200.03 6.86 o
-5 6 14 12.81 11.79 1.58 o
-5 6 19 62.11 54.27 10.35 o
-5 6 20 40.23 31.56 9.93 o
-5 7 1 17.01 15.62 1.52 o
-5 7 2 465.49 451.73 13.98 o
-5 7 3 278.86 272.33 8.85 o
-5 7 4 311.96 308.05 8.31 o
-5 7 5 97.34 95.80 2.96 o
-5 7 6 65.41 65.20 2.22 o
-5 7 8 72.91 74.09 2.55 o
-5 7 9 208.31 215.02 6.50 o
-5 7 10 47.99 50.72 3.57 o
-5 7 12 41.44 42.94 2.39 o
-5 7 13 6.73 7.17 2.34 o
-5 7 15 86.39 79.46 5.38 o
-5 7 16 90.76 87.31 10.24 o
-5 8 1 89.33 90.35 3.27 o
-5 8 2 237.20 229.97 6.54 o
-5 8 3 34.80 37.01 1.52 o
-5 8 4 8.52 9.68 0.97 o
-5 8 5 61.86 62.13 2.16 o
-5 8 6 93.08 90.40 2.73 o
-5 8 7 15.89 16.68 1.64 o
-5 8 8 240.68 238.31 6.88 o
-5 8 9 61.71 64.20 4.14 o
-5 8 10 361.43 381.79 10.67 o
-5 8 12 6.35 5.83 1.39 o
-5 8 13 6.44 4.45 1.44 o
-5 8 14 15.31 14.96 1.69 o
-5 8 18 133.04 116.75 18.67 o
-5 8 20 7.70 7.87 1.91 o
-5 9 1 34.85 34.65 1.63 o
-5 9 2 46.46 46.18 1.90 o
-5 9 3 340.10 325.53 8.61 o
-5 9 4 54.29 53.50 2.01 o
-5 9 5 135.37 134.93 4.15 o
-5 9 7 52.09 53.77 1.99 o
-5 9 8 21.88 22.02 1.35 o
-5 9 9 108.86 108.37 3.84 o
-5 9 10 111.28 118.09 4.43 o
-5 9 11 98.46 98.83 3.95 o
-5 9 13 20.41 16.89 3.91 o
-5 9 15 94.78 98.99 6.83 o
-5 9 17 12.79 12.65 2.01 o
-5 9 18 68.61 63.14 3.83 o
-5 10 1 65.09 63.46 2.31 o
-5 10 2 229.79 228.37 6.26 o
-5 10 3 120.94 117.26 3.43 o
-5 10 4 194.34 193.24 5.28 o
-5 10 5 429.27 431.26 11.11 o
-5 10 6 374.79 372.30 10.38 o
-5 10 7 65.11 64.05 2.26 o
-5 10 9 7.01 7.52 1.19 o
-5 10 10 211.69 219.04 6.25 o
-5 10 11 3.77 4.86 1.14 o
-5 10 12 580.97 587.30 18.97 o
-5 10 13 47.45 44.71 2.82 o
-5 10 14 142.19 143.58 6.34 o
-5 10 15 8.11 6.42 1.88 o
-5 10 16 94.06 84.32 12.32 o
-5 10 19 72.55 65.25 8.10 o
-5 11 1 110.02 106.13 3.16 o
-5 11 2 21.93 21.62 1.20 o
-5 11 3 42.40 40.77 1.65 o
-5 11 4 170.56 169.87 4.57 o
-5 11 5 128.03 127.11 3.63 o
-5 11 6 28.13 28.87 1.24 o
-5 11 7 6.69 7.32 1.02 o
-5 11 8 89.86 90.69 3.41 o
-5 11 9 251.87 253.42 6.98 o
-5 11 10 31.20 33.72 1.98 o
-5 11 11 59.69 57.61 2.53 o
-5 11 13 19.97 21.04 2.42 o
-5 11 14 26.55 29.34 2.38 o
-5 11 16 50.68 49.17 6.11 o
-5 11 17 64.21 56.63 7.04 o
-5 11 19 8.90 7.20 1.91 o
-5 12 1 537.06 520.98 13.44 o
-5 12 2 63.61 62.37 2.15 o
-5 12 6 109.44 108.70 3.20 o
-5 12 7 105.33 105.00 4.77 o
-5 12 8 17.96 18.07 1.23 o
-5 12 9 24.20 25.64 1.50 o
-5 12 10 18.35 19.87 1.76 o
-5 12 11 67.67 68.03 3.35 o
-5 12 12 5.05 4.75 1.14 o
-5 12 13 75.57 75.70 3.80 o
-5 12 16 17.81 15.88 3.80 o
-5 12 17 178.04 154.97 23.18 o
-5 12 18 28.03 25.26 6.22 o
-5 12 19 6.00 6.49 1.94 o
-5 13 1 72.74 71.16 2.83 o
-5 13 2 408.73 393.91 10.20 o
-5 13 3 9.95 9.12 0.92 o
-5 13 4 259.41 254.07 6.92 o
-5 13 6 11.13 13.22 1.26 o
-5 13 7 3.55 2.90 0.89 o
-5 13 8 43.93 42.98 2.22 o
-5 13 9 46.60 47.84 2.30 o
-5 13 10 68.10 69.25 2.74 o
-5 13 11 39.78 39.74 2.71 o
-5 13 12 75.45 76.69 4.00 o
-5 13 13 5.28 6.38 1.20 o
-5 13 14 119.18 116.36 3.99 o
-5 13 15 17.43 16.70 2.05 o
-5 13 16 82.20 70.68 12.24 o
-5 13 17 15.06 13.99 2.29 o
-5 13 18 15.29 13.25 2.38 o
-5 14 1 98.50 98.03 2.91 o
-5 14 2 207.27 204.69 5.58 o
-5 14 4 11.50 12.00 1.67 o
-5 14 5 91.29 96.45 3.42 o
-5 14 6 431.44 445.34 13.16 o
-5 14 7 535.92 534.00 14.68 o
-5 14 8 70.70 73.36 2.81 o
-5 14 10 20.40 19.96 1.30 o
-5 14 11 166.88 168.75 5.43 o
-5 14 12 36.47 35.90 2.13 o
-5 14 13 19.71 19.66 1.41 o
-5 14 14 8.39 8.46 1.33 o
-5 14 15 40.72 38.46 5.15 o
-5 14 18 18.11 17.49 3.95 o
-5 15 1 42.89 41.91 2.30 o
-5 15 2 101.58 99.37 3.17 o
-5 15 3 150.25 150.58 4.85 o
-5 15 4 110.98 111.69 4.64 o
-5 15 5 142.54 140.29 3.87 o
-5 15 6 12.66 12.95 1.48 o
-5 15 7 116.74 116.81 3.67 o
-5 15 8 104.77 102.20 3.24 o
-5 15 10 155.49 153.44 4.99 o
-5 15 11 13.57 12.85 1.23 o
-5 15 13 31.73 30.76 1.86 o
-5 15 14 4.47 4.84 1.34 o
-5 15 16 33.41 27.30 2.79 o
-5 15 17 16.50 13.42 1.96 o
-5 15 18 13.27 11.26 1.90 o
-5 16 1 19.73 21.95 1.78 o
-5 16 2 15.95 16.23 1.32 o
-5 16 3 75.42 75.00 2.78 o
-5 16 5 19.00 18.85 1.45 o
-5 16 8 161.70 165.25 4.86 o
-5 16 9 8.60 9.40 1.24 o
-5 16 10 25.05 25.48 1.72 o
-5 16 11 17.42 18.49 1.48 o
-5 16 12 57.51 60.76 2.96 o
-5 16 13 17.35 15.47 1.48 o
-5 16 14 7.43 8.94 1.39 o
-5 16 15 37.71 35.88 4.70 o
-5 16 16 31.10 29.46 2.93 o
-5 17 1 214.47 207.55 5.95 o
-5 17 2 82.03 76.76 4.49 o
-5 17 5 89.03 87.99 3.52 o
-5 17 7 57.89 62.42 2.97 o
-5 17 8 12.17 12.95 1.21 o
-5 17 9 425.85 425.64 12.08 o
-5 17 10 16.90 17.80 1.60 o
-5 17 11 54.65 51.28 2.64 o
-5 17 12 6.72 6.05 1.71 o
-5 17 13 42.86 41.45 2.43 o
-5 17 15 59.88 57.59 2.86 o
-5 17 16 18.91 18.05 2.57 o
-5 18 1 43.90 44.02 2.31 o
-5 18 2 211.77 214.72 6.60 o
-5 18 3 38.03 36.80 3.02 o
-5 18 4 137.06 138.06 5.33 o
-5 18 6 247.72 241.08 7.19 o
-5 18 7 101.49 107.81 4.03 o
-5 18 8 51.40 53.16 2.66 o
-5 18 9 7.62 6.84 1.47 o
-5 18 10 12.19 10.61 1.40 o
-5 18 11 48.83 48.30 3.26 o
-5 18 12 70.45 71.39 5.62 o
-5 18 13 10.17 8.51 1.36 o
-5 18 14 105.76 102.44 5.94 o
-5 18 16 8.87 8.88 1.40 o
-5 19 3 408.10 404.55 11.69 o
-5 19 4 51.41 48.35 2.81 o
-5 19 5 28.22 26.03 1.98 o
-5 19 7 59.35 60.64 3.13 o
-5 19 8 10.22 11.47 3.29 o
-5 19 9 155.76 157.45 8.20 o
-5 19 10 17.42 14.16 2.53 o
-5 19 11 12.87 13.13 2.79 o
-5 19 13 26.61 25.04 2.10 o
-5 19 14 8.27 6.85 1.65 o
-5 19 15 23.33 27.15 2.52 o
-5 20 1 127.52 125.47 5.10 o
-5 20 2 4.42 5.78 1.43 o
-5 20 3 12.10 10.23 1.77 o
-5 20 5 29.95 29.80 2.18 o
-5 20 6 25.22 20.82 4.93 o
-5 20 7 26.47 25.85 1.79 o
-5 20 11 40.50 42.47 3.53 o
-5 21 1 9.89 7.84 2.50 o
-5 21 2 56.17 59.81 4.47 o
-5 21 4 294.53 290.08 9.91 o
-5 21 6 30.17 27.87 2.33 o
-5 21 8 10.56 7.03 1.97 o
-5 21 9 182.78 181.14 8.31 o
-5 21 10 58.22 58.53 3.82 o
-5 21 11 108.18 103.80 9.94 o
-5 21 12 62.92 66.04 3.98 o
-5 21 13 43.30 44.36 3.53 o
-5 21 14 117.01 121.01 14.17 o
-5 21 15 23.15 26.19 3.22 o
-5 22 1 90.44 82.88 5.81 o
-5 22 2 43.20 46.19 3.82 o
-5 22 4 9.78 8.66 1.85 o
-5 22 5 102.57 99.17 4.60 o
-5 22 6 24.50 23.72 1.84 o
-5 22 7 174.78 177.01 5.86 o
-5 22 11 35.43 34.57 3.33 o
-5 22 13 109.02 108.16 5.84 o
-5 22 14 27.89 29.39 3.23 o
-5 22 15 12.86 13.79 3.06 o
-5 23 2 146.87 151.54 7.70 o
-5 23 4 14.52 13.69 2.74 o
-5 23 6 45.67 44.60 2.94 o
-5 23 8 126.94 126.59 5.24 o
-5 23 10 57.05 56.72 3.65 o
-5 23 11 51.99 56.19 3.66 o
-5 23 12 6.56 7.13 2.08 o
-5 24 1 139.06 135.56 7.38 o
-5 24 2 29.57 25.63 4.56 o
-5 24 5 39.30 34.47 3.98 o
-5 24 8 12.94 13.99 2.03 o
-5 24 12 43.41 43.61 3.31 o
-5 24 14 7.30 7.17 2.14 o
-5 25 3 109.24 107.89 5.07 o
-5 25 4 16.41 16.18 5.04 o
-5 25 5 110.02 102.10 4.90 o
-5 25 6 22.46 24.97 2.39 o
-5 25 7 104.75 112.61 6.79 o
-5 25 9 18.42 18.12 3.89 o
-5 25 11 25.49 27.19 2.32 o
-5 25 12 20.44 19.75 2.67 o
-5 26 1 28.21 27.98 3.26 o
-5 26 2 35.73 32.17 2.82 o
-5 26 3 10.22 6.83 2.21 o
-5 26 5 41.91 44.07 4.09 o
-5 26 6 258.89 252.55 9.52 o
-5 26 8 19.10 19.81 3.34 o
-5 26 12 75.95 73.19 5.10 o
-5 27 1 20.08 16.74 2.70 o
-5 27 2 22.62 18.84 2.24 o
-5 27 3 46.53 44.51 3.21 o
-5 27 4 9.71 9.55 2.06 o
-5 27 6 34.90 36.19 3.52 o
-5 27 9 93.15 98.60 6.04 o
-5 27 11 18.58 16.88 3.19 o
-5 28 1 44.46 49.07 3.76 o
-5 28 2 12.88 11.47 2.12 o
-5 28 3 11.57 10.89 2.08 o
-5 28 4 8.39 7.64 2.04 o
-5 28 5 25.42 20.80 2.78 o
-5 28 7 38.23 33.03 4.36 o
-5 28 8 63.61 57.77 4.88 o
-5 28 9 16.57 18.52 3.15 o
-5 28 10 26.82 27.92 4.22 o
-5 29 1 10.99 7.06 2.31 o
-5 29 3 23.31 23.68 2.48 o
-5 29 4 85.98 83.37 4.39 o
-5 29 8 31.81 30.63 4.19 o
-5 30 1 47.90 50.87 5.23 o
-5 30 2 37.96 37.61 3.03 o
-5 30 3 25.23 23.65 2.44 o
-5 30 4 27.50 24.21 5.26 o
-5 30 5 185.41 178.01 8.04 o
-5 31 2 29.87 29.85 3.54 o
-5 31 3 18.84 23.61 5.41 o
-4 0 2 220.00 210.67 7.02 o
-4 0 4 207.29 199.29 7.94 o
-4 0 6 226.41 212.27 9.03 o
-4 0 8 319.57 312.60 12.61 o
-4 0 10 225.01 230.01 7.24 o
-4 0 12 98.42 95.14 4.87 o
-4 0 14 88.33 86.83 3.45 o
-4 0 20 134.92 109.40 31.00 o
-4 1 1 497.59 472.79 12.27 o
-4 1 3 26.29 26.02 1.58 o
-4 1 4 345.50 343.42 9.51 o
-4 1 5 651.57 623.40 17.07 o
-4 1 6 7.06 7.84 1.30 o
-4 1 7 231.75 223.67 6.96 o
-4 1 8 65.09 61.76 3.17 o
-4 1 9 117.38 124.26 3.87 o
-4 1 10 19.18 19.36 1.23 o
-4 1 11 4.42 4.20 1.13 o
-4 1 12 172.79 175.29 4.91 o
-4 1 13 263.91 267.80 7.02 o
-4 1 14 108.85 101.38 3.57 o
-4 1 15 26.55 26.39 1.99 o
-4 1 16 54.95 52.71 2.46 o
-4 1 17 105.42 96.23 8.51 o
-4 1 18 76.87 71.33 4.61 o
-4 1 19 7.64 7.05 1.29 o
-4 1 20 53.47 47.32 6.00 o
-4 2 1 69.95 70.16 2.68 o
-4 2 2 419.91 406.78 10.79 o
-4 2 3 920.37 899.25 24.05 o
-4 2 4 352.83 343.60 9.16 o
-4 2 5 17.34 18.35 1.37 o
-4 2 6 129.74 123.45 4.51 o
-4 2 7 227.12 224.36 6.74 o
-4 2 8 492.52 478.96 14.80 o
-4 2 9 121.10 119.84 3.87 o
-4 2 10 49.34 51.42 2.05 o
-4 2 11 77.26 75.05 2.56 o
-4 2 12 6.45 9.24 1.09 o
-4 2 13 12.18 12.49 1.25 o
-4 2 14 133.75 133.43 4.52 o
-4 2 15 269.66 264.96 11.21 o
-4 2 16 95.55 91.73 4.00 o
-4 2 17 11.41 11.93 1.32 o
-4 2 19 44.55 40.66 2.52 o
-4 2 20 9.40 8.15 1.92 o
-4 3 1 241.21 235.69 6.39 o
-4 3 2 357.41 348.39 9.39 o
-4 3 3 582.10 569.18 15.23 o
-4 3 4 72.56 74.65 2.93 o
-4 3 5 79.87 80.55 2.93 o
-4 3 6 618.59 623.96 17.09 o
-4 3 7 13.82 14.48 1.40 o
-4 3 8 58.13 61.10 3.23 o
-4 3 9 132.39 133.21 4.16 o
-4 3 10 350.65 354.16 10.29 o
-4 3 11 735.78 736.10 19.68 o
-4 3 12 29.49 30.62 1.71 o
-4 3 14 11.58 12.33 1.09 o
-4 3 15 16.36 15.71 1.63 o
-4 3 17 16.55 13.98 1.36 o
-4 3 18 65.07 61.95 3.15 o
-4 3 19 38.68 32.57 6.03 o
-4 3 20 31.26 27.25 7.00 o
-4 4 3 853.50 836.42 22.61 o
-4 4 4 12.35 10.96 1.23 o
-4 4 5 200.31 195.33 5.74 o
-4 4 7 153.04 156.38 4.94 o
-4 4 8 42.07 42.42 2.31 o
-4 4 9 176.44 178.91 5.36 o
-4 4 10 138.38 136.88 4.57 o
-4 4 12 44.46 44.16 2.04 o
-4 4 13 42.27 39.98 2.19 o
-4 4 15 34.90 33.56 2.49 o
-4 4 19 53.05 42.92 7.11 o
-4 4 21 32.79 34.07 4.30 o
-4 5 1 377.50 361.06 9.89 o
-4 5 2 114.15 111.90 3.73 o
-4 5 3 518.30 518.71 13.90 o
-4 5 5 153.68 145.99 4.52 o
-4 5 6 311.64 299.56 9.14 o
-4 5 7 3.28 3.77 1.21 o
-4 5 8 144.77 143.67 4.26 o
-4 5 9 17.01 17.54 1.48 o
-4 5 10 38.17 37.67 1.98 o
-4 5 11 100.60 109.35 4.67 o
-4 5 12 467.14 474.97 13.60 o
-4 5 13 73.53 72.90 4.48 o
-4 5 15 7.48 6.60 1.68 o
-4 5 16 146.70 145.09 5.72 o
-4 5 17 20.59 19.21 3.49 o
-4 5 19 25.44 24.54 2.56 o
-4 6 1 1638.89 1557.76 39.21 o
-4 6 2 41.64 40.52 2.04 o
-4 6 3 26.36 25.37 1.64 o
-4 6 4 19.14 21.13 1.50 o
-4 6 5 10.15 10.00 1.28 o
-4 6 6 27.16 29.07 1.96 o
-4 6 7 80.48 79.61 3.77 o
-4 6 8 214.88 217.23 7.45 o
-4 6 9 360.67 370.31 10.05 o
-4 6 10 329.25 331.60 9.26 o
-4 6 11 200.85 208.11 6.12 o
-4 6 12 21.72 23.02 1.88 o
-4 6 13 204.89 205.59 6.38 o
-4 6 14 139.80 145.48 5.93 o
-4 6 15 172.57 169.05 13.24 o
-4 6 16 14.75 14.91 1.97 o
-4 6 21 61.69 69.51 5.19 o
-4 7 1 188.80 180.02 5.26 o
-4 7 2 207.72 204.70 5.91 o
-4 7 3 52.29 55.76 2.41 o
-4 7 4 604.10 593.23 16.37 o
-4 7 5 256.79 253.55 8.07 o
-4 7 6 346.54 353.25 10.11 o
-4 7 7 165.99 174.19 5.43 o
-4 7 8 27.20 26.79 2.21 o
-4 7 10 66.69 65.54 3.60 o
-4 7 11 237.16 246.23 7.45 o
-4 7 12 36.58 38.02 3.64 o
-4 7 13 7.45 6.91 1.97 o
-4 7 14 80.75 77.50 5.61 o
-4 7 18 81.61 68.64 11.33 o
-4 8 1 217.82 207.26 6.40 o
-4 8 2 751.52 727.68 20.16 o
-4 8 3 77.89 77.72 2.97 o
-4 8 4 300.76 289.83 8.30 o
-4 8 5 96.84 96.17 3.44 o
-4 8 7 85.26 85.51 3.20 o
-4 8 8 74.21 79.09 2.87 o
-4 8 9 28.73 29.66 1.55 o
-4 8 10 294.58 300.17 8.16 o
-4 8 11 92.56 92.02 3.29 o
-4 8 12 286.38 287.60 9.01 o
-4 8 16 26.65 20.23 2.35 o
-4 8 17 13.65 10.92 3.36 o
-4 8 20 95.79 75.03 19.61 o
-4 9 1 405.65 389.30 11.48 o
-4 9 2 88.56 93.53 3.48 o
-4 9 3 5.12 5.07 1.22 o
-4 9 4 21.02 21.45 1.55 o
-4 9 5 479.38 468.37 13.37 o
-4 9 6 132.86 133.25 4.36 o
-4 9 7 180.36 178.44 5.07 o
-4 9 9 34.35 35.38 1.85 o
-4 9 10 49.15 51.30 2.30 o
-4 9 11 81.96 81.85 3.03 o
-4 9 12 40.59 43.58 2.23 o
-4 9 13 122.11 127.36 4.04 o
-4 9 14 8.11 7.63 1.80 o
-4 9 17 78.12 80.38 4.86 o
-4 9 19 24.77 23.84 5.41 o
-4 9 20 38.36 34.06 2.99 o
-4 10 1 86.34 82.31 3.64 o
-4 10 2 255.11 254.09 7.60 o
-4 10 3 126.51 124.05 4.38 o
-4 10 4 385.40 378.50 12.84 o
-4 10 5 153.13 148.74 4.76 o
-4 10 6 162.80 166.66 4.94 o
-4 10 7 430.99 427.17 11.39 o
-4 10 8 383.45 384.11 10.32 o
-4 10 9 55.43 58.04 2.60 o
-4 10 12 273.12 277.88 7.74 o
-4 10 13 6.01 4.11 1.13 o
-4 10 14 533.11 530.71 21.00 o
-4 10 15 40.36 42.41 7.19 o
-4 10 16 136.33 130.38 15.90 o
-4 10 17 8.26 9.06 2.08 o
-4 10 18 62.36 63.50 7.05 o
-4 10 19 8.03 7.11 1.91 o
-4 11 1 16.63 16.24 1.70 o
-4 11 2 150.65 151.34 4.96 o
-4 11 3 87.55 90.80 4.78 o
-4 11 4 18.44 17.77 2.16 o
-4 11 5 39.15 35.85 1.88 o
-4 11 6 181.27 179.60 5.18 o
-4 11 7 280.33 283.87 7.64 o
-4 11 8 57.85 57.17 2.30 o
-4 11 9 7.85 9.20 1.13 o
-4 11 10 57.05 59.51 2.62 o
-4 11 11 253.92 251.79 7.04 o
-4 11 12 65.91 66.27 3.48 o
-4 11 13 50.60 50.77 2.41 o
-4 11 16 23.62 24.48 6.06 o
-4 11 18 30.09 23.43 3.82 o
-4 11 19 53.31 41.70 13.53 o
-4 12 1 6.54 5.36 1.42 o
-4 12 2 35.37 37.04 2.57 o
-4 12 3 572.28 556.24 15.20 o
-4 12 4 62.07 63.86 2.60 o
-4 12 5 14.68 16.41 1.20 o
-4 12 8 63.70 64.06 2.33 o
-4 12 9 190.91 190.64 6.07 o
-4 12 11 7.57 8.27 1.05 o
-4 12 12 11.15 11.83 1.41 o
-4 12 13 27.40 28.18 2.86 o
-4 12 15 81.89 75.28 9.48 o
-4 12 16 8.14 8.70 1.50 o
-4 12 18 17.31 12.77 2.38 o
-4 12 19 161.78 128.04 27.38 o
-4 12 20 16.83 19.83 3.82 o
-4 13 1 11.36 11.99 1.26 o
-4 13 2 327.35 318.05 8.55 o
-4 13 3 125.46 126.39 3.87 o
-4 13 4 527.84 531.44 14.22 o
-4 13 5 8.66 10.17 0.94 o
-4 13 6 283.67 283.55 7.22 o
-4 13 9 12.56 12.98 1.49 o
-4 13 10 12.57 12.68 1.09 o
-4 13 11 53.31 52.93 2.65 o
-4 13 12 92.43 94.70 4.46 o
-4 13 13 44.77 45.39 2.30 o
-4 13 14 102.49 100.62 3.83 o
-4 13 16 95.81 98.19 4.84 o
-4 13 17 10.28 9.69 1.92 o
-4 13 18 75.83 64.13 11.98 o
-4 14 1 468.98 459.17 12.34 o
-4 14 2 5.85 7.47 1.05 o
-4 14 3 225.51 221.33 6.11 o
-4 14 4 301.77 306.81 8.09 o
-4 14 5 8.03 8.62 0.96 o
-4 14 6 12.97 14.23 1.45 o
-4 14 7 108.67 110.85 5.03 o
-4 14 8 386.89 389.55 11.67 o
-4 14 9 530.45 542.90 15.14 o
-4 14 10 43.85 44.27 2.39 o
-4 14 11 5.29 4.62 1.40 o
-4 14 12 34.39 36.90 3.15 o
-4 14 13 128.21 123.77 5.40 o
-4 14 14 45.50 47.48 3.52 o
-4 14 15 16.20 16.51 3.47 o
-4 14 17 57.93 55.19 6.48 o
-4 14 18 18.36 13.91 3.71 o
-4 14 20 13.38 12.15 2.88 o
-4 15 1 74.95 74.60 2.59 o
-4 15 3 118.36 117.59 3.71 o
-4 15 4 93.23 93.85 2.96 o
-4 15 5 158.43 159.07 4.60 o
-4 15 6 124.73 127.15 3.84 o
-4 15 7 235.37 237.37 8.17 o
-4 15 8 58.20 59.45 2.74 o
-4 15 9 142.45 145.98 5.18 o
-4 15 10 111.45 113.87 3.77 o
-4 15 12 161.55 157.29 6.22 o
-4 15 13 9.91 10.50 1.32 o
-4 15 15 8.56 8.18 1.46 o
-4 15 18 21.51 19.44 3.75 o
-4 15 19 25.45 27.34 3.82 o
-4 16 1 49.04 46.04 1.95 o
-4 16 2 588.63 585.29 16.06 o
-4 16 3 44.11 44.85 1.98 o
-4 16 4 12.84 11.20 1.33 o
-4 16 5 147.72 161.30 5.44 o
-4 16 7 19.68 21.89 1.34 o
-4 16 9 5.90 5.75 1.10 o
-4 16 10 214.00 213.67 7.36 o
-4 16 11 5.83 6.25 1.17 o
-4 16 12 12.32 12.79 2.25 o
-4 16 13 17.29 16.98 1.86 o
-4 16 14 66.90 66.47 6.62 o
-4 16 15 14.02 12.53 2.26 o
-4 16 16 9.91 10.39 1.53 o
-4 16 17 27.28 25.29 2.24 o
-4 16 18 26.96 26.19 4.42 o
-4 17 1 45.26 46.63 4.19 o
-4 17 2 16.83 17.24 1.40 o
-4 17 3 129.29 128.29 4.16 o
-4 17 4 77.29 75.30 3.76 o
-4 17 7 135.33 131.39 4.44 o
-4 17 8 10.68 10.33 1.37 o
-4 17 9 79.23 80.61 3.55 o
-4 17 10 21.33 22.21 1.41 o
-4 17 11 410.12 409.78 11.58 o
-4 17 12 9.85 9.60 1.77 o
-4 17 13 63.12 67.58 3.12 o
-4 17 14 10.83 10.39 1.36 o
-4 17 15 26.61 23.78 4.18 o
-4 17 17 39.48 38.18 3.34 o
-4 17 18 13.11 11.76 2.35 o
-4 18 1 93.20 101.02 3.90 o
-4 18 2 145.99 151.77 4.62 o
-4 18 3 63.71 67.36 3.05 o
-4 18 4 320.21 318.60 10.01 o
-4 18 5 107.84 102.41 6.64 o
-4 18 6 103.79 104.55 11.50 o
-4 18 8 262.35 260.19 7.36 o
-4 18 9 130.78 136.28 7.49 o
-4 18 10 82.14 86.64 4.31 o
-4 18 11 7.82 7.31 1.46 o
-4 18 13 49.45 51.52 2.98 o
-4 18 14 57.87 55.49 4.60 o
-4 18 16 107.75 109.50 4.80 o
-4 19 1 220.41 213.20 7.37 o
-4 19 4 7.64 7.29 1.65 o
-4 19 5 410.02 406.17 13.02 o
-4 19 6 30.52 26.25 2.64 o
-4 19 7 59.20 54.83 2.92 o
-4 19 8 11.00 10.14 1.52 o
-4 19 9 43.55 46.06 3.50 o
-4 19 11 147.42 140.27 5.81 o
-4 19 12 45.19 45.68 5.46 o
-4 19 13 7.54 5.54 1.55 o
-4 19 15 41.46 38.54 2.75 o
-4 19 16 11.01 11.16 1.72 o
-4 19 17 25.23 24.94 2.27 o
-4 20 1 80.04 82.59 3.93 o
-4 20 2 15.44 14.74 1.55 o
-4 20 3 154.35 158.04 5.57 o
-4 20 4 16.33 13.02 2.73 o
-4 20 5 36.38 40.36 5.58 o
-4 20 7 32.40 31.30 2.05 o
-4 20 8 22.89 26.66 2.54 o
-4 20 9 35.47 31.27 2.81 o
-4 20 13 10.51 9.96 2.12 o
-4 20 14 7.72 8.43 2.15 o
-4 20 15 10.52 11.37 2.22 o
-4 21 2 34.58 33.00 1.86 o
-4 21 3 14.30 15.58 1.78 o
-4 21 4 45.65 43.60 3.10 o
-4 21 6 376.56 368.64 11.81 o
-4 21 7 12.75 13.07 1.53 o
-4 21 8 18.24 17.93 1.73 o
-4 21 10 4.72 9.51 1.97 o
-4 21 11 170.83 166.36 6.49 o
-4 21 12 63.16 66.54 5.74 o
-4 21 13 114.15 112.71 5.14 o
-4 21 14 75.71 80.70 5.23 o
-4 21 15 54.50 59.55 3.90 o
-4 21 16 85.44 91.42 4.60 o
-4 21 17 19.13 20.95 3.89 o
-4 22 1 50.38 45.13 3.26 o
-4 22 3 157.72 161.80 5.62 o
-4 22 4 55.42 54.20 3.29 o
-4 22 6 19.00 18.15 1.66 o
-4 22 7 82.83 85.52 3.68 o
-4 22 8 6.09 5.01 1.61 o
-4 22 9 196.31 188.39 6.99 o
-4 22 11 23.40 24.16 2.34 o
-4 22 13 42.88 43.19 5.36 o
-4 22 15 93.87 98.63 7.91 o
-4 22 16 12.81 14.43 2.26 o
-4 23 2 58.56 66.75 6.14 o
-4 23 3 26.74 26.76 4.13 o
-4 23 4 129.87 123.14 12.15 o
-4 23 5 11.26 10.05 1.52 o
-4 23 6 27.94 25.50 2.01 o
-4 23 7 11.29 12.16 2.07 o
-4 23 8 85.88 81.90 5.61 o
-4 23 10 150.03 143.28 5.78 o
-4 23 12 44.11 42.22 3.50 o
-4 23 13 39.70 38.67 3.42 o
-4 24 2 142.56 135.46 7.88 o
-4 24 3 169.88 167.91 8.95 o
-4 24 4 34.38 34.75 8.53 o
-4 24 7 33.78 41.11 2.50 o
-4 24 10 14.98 16.83 2.13 o
-4 24 14 34.68 32.45 5.10 o
-4 25 1 125.14 122.08 7.72 o
-4 25 2 28.01 24.22 4.24 o
-4 25 3 4.54 7.90 2.08 o
-4 25 4 18.52 17.30 4.44 o
-4 25 5 149.88 149.30 6.14 o
-4 25 6 11.13 12.32 1.62 o
-4 25 7 96.12 89.70 3.39 o
-4 25 8 11.40 10.92 2.81 o
-4 25 9 58.17 55.55 3.50 o
-4 25 11 14.82 10.86 2.06 o
-4 25 13 47.39 49.76 6.51 o
-4 25 14 19.72 20.55 2.52 o
-4 26 1 26.84 25.49 4.21 o
-4 26 2 25.69 21.82 2.37 o
-4 26 3 32.94 29.57 3.35 o
-4 26 4 77.80 77.92 12.84 o
-4 26 5 19.80 23.11 2.41 o
-4 26 7 56.59 56.24 3.76 o
-4 26 8 315.26 322.24 9.46 o
-4 26 10 24.95 27.03 2.34 o
-4 26 12 5.46 5.64 1.60 o
-4 26 13 11.56 11.70 1.68 o
-4 26 14 53.53 57.98 3.65 o
-4 27 1 42.39 44.89 3.56 o
-4 27 2 28.46 29.67 3.15 o
-4 27 3 29.62 29.61 2.90 o
-4 27 4 34.64 35.06 4.00 o
-4 27 5 31.15 37.53 5.10 o
-4 27 6 14.64 11.30 2.04 o
-4 27 7 14.52 14.16 2.59 o
-4 27 8 33.59 35.34 3.07 o
-4 27 9 11.01 9.59 1.98 o
-4 27 11 102.08 102.96 4.56 o
-4 27 12 5.94 7.14 1.99 o
-4 27 13 22.43 23.07 4.09 o
-4 28 1 22.12 19.94 2.34 o
-4 28 2 38.28 39.34 3.42 o
-4 28 3 55.43 54.30 3.75 o
-4 28 5 11.24 10.66 2.06 o
-4 28 7 43.71 46.12 4.65 o
-4 28 9 49.27 48.74 3.26 o
-4 28 10 66.24 63.96 3.61 o
-4 28 11 19.79 17.28 2.14 o
-4 28 12 22.77 21.84 4.01 o
-4 29 1 28.65 27.58 3.91 o
-4 29 3 14.35 15.12 2.16 o
-4 29 5 32.77 37.23 4.57 o
-4 29 6 143.06 143.16 7.25 o
-4 29 7 10.08 13.39 2.94 o
-4 29 8 12.39 10.04 2.92 o
-4 29 10 36.55 33.04 2.99 o
-4 30 1 48.85 50.39 5.09 o
-4 30 3 79.07 74.63 5.56 o
-4 30 4 29.86 28.77 2.78 o
-4 30 5 27.04 27.89 3.16 o
-4 30 6 21.28 24.07 6.25 o
-4 30 7 164.40 161.49 7.64 o
-4 30 9 38.42 37.06 4.39 o
-4 31 1 50.61 45.05 4.81 o
-4 31 4 31.74 24.71 4.74 o
-4 31 5 18.03 14.29 2.61 o
-4 31 6 47.03 43.67 4.60 o
-4 32 4 40.28 39.92 7.91 o
-4 33 1 19.39 15.57 4.43 o
-3 0 2 255.27 255.27 7.62 o
-3 0 4 100.93 100.24 3.90 o
-3 0 6 335.29 341.92 10.07 o
-3 0 8 363.92 352.29 13.55 o
-3 0 10 356.15 356.71 21.75 o
-3 0 12 193.24 187.56 6.44 o
-3 0 14 52.37 51.66 5.00 o
-3 0 16 69.58 70.60 6.81 o
-3 1 1 585.99 574.33 15.14 o
-3 1 2 41.42 39.84 2.20 o
-3 1 3 725.53 705.63 18.43 o
-3 1 5 58.02 57.56 2.32 o
-3 1 6 252.56 255.18 7.44 o
-3 1 7 535.05 530.19 14.81 o
-3 1 8 40.63 40.57 2.65 o
-3 1 9 268.18 266.69 8.59 o
-3 1 10 102.53 97.82 4.19 o
-3 1 11 37.08 40.21 1.81 o
-3 1 12 41.50 41.30 1.76 o
-3 1 13 7.27 6.80 1.14 o
-3 1 14 72.15 70.47 2.69 o
-3 1 15 257.85 240.95 10.77 o
-3 1 16 137.79 126.93 6.38 o
-3 1 17 19.14 16.33 1.34 o
-3 1 18 28.47 24.44 2.55 o
-3 1 19 61.82 56.02 5.26 o
-3 1 20 71.73 73.25 3.88 o
-3 2 2 165.92 162.12 4.80 o
-3 2 3 61.30 58.80 2.55 o
-3 2 4 522.39 522.99 13.74 o
-3 2 5 1295.76 1296.13 33.40 o
-3 2 6 550.22 548.08 14.78 o
-3 2 7 17.19 16.19 1.50 o
-3 2 8 101.52 100.95 3.94 o
-3 2 9 136.29 139.59 4.85 o
-3 2 10 445.32 444.86 15.63 o
-3 2 11 92.21 93.73 3.01 o
-3 2 12 46.11 47.10 2.17 o
-3 2 13 169.04 168.75 5.04 o
-3 2 14 21.39 20.13 1.27 o
-3 2 15 16.29 14.69 1.23 o
-3 2 16 68.01 66.60 2.63 o
-3 2 17 199.41 183.00 12.65 o
-3 2 18 109.33 96.40 9.11 o
-3 2 19 8.20 7.78 1.27 o
-3 3 1 132.38 126.98 3.85 o
-3 3 2 260.29 245.64 6.75 o
-3 3 3 488.00 494.96 12.98 o
-3 3 4 851.13 851.53 21.95 o
-3 3 5 648.78 639.26 17.30 o
-3 3 6 62.16 64.21 2.54 o
-3 3 7 104.50 105.79 3.54 o
-3 3 8 699.90 700.37 20.82 o
-3 3 9 25.54 25.06 2.08 o
-3 3 10 54.04 50.51 3.78 o
-3 3 11 144.95 144.23 4.12 o
-3 3 12 229.33 228.04 6.08 o
-3 3 13 547.97 549.78 16.63 o
-3 3 14 24.18 24.72 2.08 o
-3 3 17 24.65 22.90 2.68 o
-3 3 18 6.63 5.38 1.22 o
-3 3 19 14.26 14.57 1.98 o
-3 4 1 1002.33 970.98 24.79 o
-3 4 2 7.73 8.04 1.26 o
-3 4 3 10.91 11.30 1.23 o
-3 4 4 4.88 4.36 1.19 o
-3 4 5 652.69 662.16 17.89 o
-3 4 6 24.27 25.63 1.60 o
-3 4 7 315.07 315.28 8.82 o
-3 4 8 9.23 9.29 1.62 o
-3 4 9 52.79 50.89 2.78 o
-3 4 10 53.44 54.96 2.63 o
-3 4 11 257.74 257.02 7.05 o
-3 4 12 179.20 176.39 5.39 o
-3 4 14 48.29 48.15 3.63 o
-3 4 15 20.82 18.44 1.27 o
-3 4 17 35.49 31.65 2.71 o
-3 5 1 13.61 12.91 1.32 o
-3 5 2 1629.72 1614.57 45.00 o
-3 5 3 740.62 744.53 21.86 o
-3 5 4 46.61 44.73 2.27 o
-3 5 5 794.28 786.85 21.39 o
-3 5 6 17.19 15.84 1.36 o
-3 5 7 142.14 145.76 4.88 o
-3 5 8 370.15 379.14 10.88 o
-3 5 9 4.52 5.61 1.65 o
-3 5 10 186.46 190.67 5.60 o
-3 5 11 47.23 49.45 2.70 o
-3 5 12 16.89 16.23 1.54 o
-3 5 13 69.57 71.35 3.19 o
-3 5 14 427.81 417.40 22.74 o
-3 5 15 95.41 87.29 6.63 o
-3 5 17 4.55 6.35 1.77 o
-3 5 18 87.57 79.34 11.96 o
-3 6 1 287.48 282.94 7.65 o
-3 6 2 649.77 631.30 17.43 o
-3 6 3 1633.01 1592.16 39.39 o
-3 6 4 7.73 9.06 1.23 o
-3 6 5 113.95 116.76 4.82 o
-3 6 6 104.10 104.02 3.60 o
-3 6 7 38.98 37.62 2.04 o
-3 6 8 49.23 49.44 2.65 o
-3 6 9 82.87 84.75 3.63 o
-3 6 10 235.44 229.91 6.66 o
-3 6 11 272.37 275.43 7.59 o
-3 6 12 307.28 314.69 9.29 o
-3 6 13 278.71 279.33 10.39 o
-3 6 14 13.10 11.98 1.61 o
-3 6 15 147.29 142.19 5.34 o
-3 6 16 81.10 75.89 3.73 o
-3 6 17 129.75 116.64 20.45 o
-3 6 18 15.61 11.81 2.67 o
-3 7 1 398.90 393.38 10.34 o
-3 7 2 268.75 262.95 7.05 o
-3 7 3 233.49 234.09 7.13 o
-3 7 4 157.67 158.37 5.16 o
-3 7 5 105.30 110.26 3.63 o
-3 7 6 585.08 589.24 16.43 o
-3 7 7 153.14 156.92 5.19 o
-3 7 8 311.08 316.65 9.45 o
-3 7 9 240.52 248.97 8.30 o
-3 7 11 18.30 17.07 1.36 o
-3 7 12 55.81 55.50 2.61 o
-3 7 13 255.90 253.86 6.98 o
-3 7 14 22.66 12.94 4.20 o
-3 7 16 100.66 89.89 12.93 o
-3 7 19 38.19 31.87 10.40 o
-3 7 20 60.62 50.53 12.08 o
-3 8 1 153.71 152.22 4.33 o
-3 8 2 712.70 699.12 20.10 o
-3 8 3 355.58 345.07 9.18 o
-3 8 4 889.02 895.71 25.39 o
-3 8 5 78.56 74.40 3.00 o
-3 8 6 326.10 337.88 9.63 o
-3 8 7 156.21 164.55 5.25 o
-3 8 9 106.73 111.55 3.96 o
-3 8 10 50.72 50.37 2.21 o
-3 8 11 30.08 29.37 2.60 o
-3 8 12 278.97 278.66 8.02 o
-3 8 13 105.96 107.69 3.47 o
-3 8 14 172.38 172.33 5.34 o
-3 8 15 14.28 11.67 1.70 o
-3 8 18 33.47 29.54 3.56 o
-3 8 19 19.30 14.76 2.02 o
-3 9 1 578.62 573.65 18.99 o
-3 9 2 150.28 148.71 4.42 o
-3 9 3 661.15 662.02 17.97 o
-3 9 4 128.44 130.79 4.62 o
-3 9 5 8.05 7.73 1.22 o
-3 9 6 4.66 4.40 1.25 o
-3 9 7 594.89 595.10 17.58 o
-3 9 8 214.89 218.88 8.31 o
-3 9 9 181.84 184.05 5.75 o
-3 9 11 15.37 14.87 1.34 o
-3 9 12 65.83 64.69 2.67 o
-3 9 13 42.08 41.04 2.28 o
-3 9 14 4.50 5.42 1.25 o
-3 9 15 128.01 128.28 4.36 o
-3 9 16 27.69 24.43 5.47 o
-3 9 18 8.10 7.68 1.89 o
-3 9 19 59.31 52.24 7.28 o
-3 9 20 13.71 13.97 3.08 o
-3 10 1 93.91 94.83 3.37 o
-3 10 2 151.89 145.12 5.18 o
-3 10 3 90.25 91.28 3.20 o
-3 10 4 295.73 304.14 8.72 o
-3 10 5 185.37 188.00 6.01 o
-3 10 6 462.64 476.80 13.66 o
-3 10 7 168.98 167.95 5.29 o
-3 10 8 79.13 80.32 3.80 o
-3 10 9 337.20 344.60 10.37 o
-3 10 10 324.54 325.69 9.05 o
-3 10 11 43.27 41.27 2.61 o
-3 10 12 21.26 19.86 1.28 o
-3 10 13 17.11 14.09 1.24 o
-3 10 14 263.41 272.23 9.29 o
-3 10 15 8.18 6.77 1.34 o
-3 10 16 401.45 387.63 24.58 o
-3 10 17 25.61 19.50 5.67 o
-3 10 18 104.94 79.45 24.26 o
-3 10 20 28.36 24.84 4.18 o
-3 11 1 151.97 154.34 4.75 o
-3 11 2 173.37 173.28 5.23 o
-3 11 3 31.35 32.98 1.96 o
-3 11 4 290.08 282.86 7.95 o
-3 11 5 37.32 38.16 2.20 o
-3 11 6 10.30 13.00 1.88 o
-3 11 7 44.71 46.64 2.59 o
-3 11 8 165.35 172.45 5.87 o
-3 11 9 410.11 416.61 11.28 o
-3 11 10 81.15 81.80 2.97 o
-3 11 11 10.98 11.88 1.25 o
-3 11 12 24.94 25.24 1.75 o
-3 11 13 180.67 181.92 6.32 o
-3 11 14 91.86 89.77 4.90 o
-3 11 15 47.40 45.59 4.87 o
-3 11 20 14.10 12.55 2.88 o
-3 12 1 18.42 21.05 1.52 o
-3 12 2 79.27 76.18 3.03 o
-3 12 3 28.88 30.91 1.91 o
-3 12 4 59.99 62.71 3.01 o
-3 12 5 521.27 529.09 15.25 o
-3 12 6 46.16 48.95 2.55 o
-3 12 7 83.02 86.63 3.50 o
-3 12 10 26.65 27.74 1.89 o
-3 12 11 240.69 234.63 6.79 o
-3 12 17 79.79 78.69 6.12 o
-3 12 18 13.00 12.90 1.81 o
-3 12 20 15.61 13.70 2.87 o
-3 13 1 11.00 12.87 1.34 o
-3 13 2 558.15 564.79 15.86 o
-3 13 3 33.00 32.34 1.85 o
-3 13 4 469.27 480.89 14.89 o
-3 13 5 152.77 151.70 5.58 o
-3 13 6 541.65 560.23 17.50 o
-3 13 7 6.95 5.79 1.31 o
-3 13 8 237.96 239.84 6.49 o
-3 13 9 5.62 4.43 1.26 o
-3 13 11 18.29 19.10 2.10 o
-3 13 13 42.75 42.73 2.46 o
-3 13 14 101.99 101.31 4.90 o
-3 13 15 47.52 45.33 4.36 o
-3 13 16 99.59 94.41 6.65 o
-3 13 18 56.75 50.14 6.47 o
-3 14 1 88.32 90.27 3.36 o
-3 14 3 320.51 325.76 9.88 o
-3 14 5 431.29 432.14 13.14 o
-3 14 6 358.35 365.27 10.35 o
-3 14 7 26.50 30.14 2.51 o
-3 14 8 11.03 11.49 1.08 o
-3 14 9 118.38 123.99 3.84 o
-3 14 10 284.34 288.49 7.92 o
-3 14 11 403.05 398.93 11.31 o
-3 14 12 18.54 16.42 1.42 o
-3 14 13 25.12 27.75 2.90 o
-3 14 14 41.01 38.82 2.59 o
-3 14 15 72.75 71.20 3.63 o
-3 14 16 44.50 42.12 8.03 o
-3 14 17 15.12 15.27 3.05 o
-3 14 19 61.79 59.94 4.07 o
-3 15 1 200.01 194.86 6.04 o
-3 15 2 290.06 283.71 8.76 o
-3 15 3 83.13 85.06 3.01 o
-3 15 5 215.09 218.44 6.51 o
-3 15 6 50.25 56.80 3.96 o
-3 15 7 143.14 146.60 7.71 o
-3 15 8 120.68 115.39 3.53 o
-3 15 9 292.88 292.70 8.42 o
-3 15 10 133.02 133.33 4.15 o
-3 15 11 142.49 146.33 5.44 o
-3 15 12 105.23 108.39 4.60 o
-3 15 14 143.73 136.16 5.44 o
-3 15 15 6.44 5.74 1.78 o
-3 16 2 127.10 127.81 3.88 o
-3 16 3 49.83 52.25 2.35 o
-3 16 4 734.56 752.92 26.54 o
-3 16 5 78.55 80.26 3.14 o
-3 16 6 5.64 4.61 1.39 o
-3 16 7 215.60 210.36 6.86 o
-3 16 8 10.68 9.39 1.25 o
-3 16 9 13.62 12.80 1.16 o
-3 16 11 15.78 16.83 2.40 o
-3 16 12 234.96 234.69 7.30 o
-3 16 15 16.85 14.79 1.58 o
-3 16 16 65.17 61.86 4.82 o
-3 16 17 8.14 6.19 1.50 o
-3 16 18 8.72 8.16 1.95 o
-3 16 19 16.22 16.92 3.11 o
-3 17 1 794.70 808.53 22.10 o
-3 17 2 52.72 57.36 2.85 o
-3 17 3 90.92 90.57 3.25 o
-3 17 5 39.11 38.80 3.92 o
-3 17 6 52.76 53.97 3.53 o
-3 17 7 27.43 27.75 1.85 o
-3 17 9 149.51 154.81 8.64 o
-3 17 10 32.48 34.50 2.17 o
-3 17 11 93.65 96.10 3.35 o
-3 17 12 32.20 29.61 1.79 o
-3 17 13 319.83 320.83 24.15 o
-3 17 15 65.37 61.19 3.55 o
-3 17 16 10.92 9.55 1.49 o
-3 17 17 11.97 10.63 1.93 o
-3 17 19 24.75 27.18 3.97 o
-3 18 1 82.52 86.42 3.19 o
-3 18 2 31.10 28.50 1.48 o
-3 18 3 45.13 43.57 2.62 o
-3 18 4 160.24 163.47 6.05 o
-3 18 5 63.58 62.09 2.94 o
-3 18 6 376.72 402.42 19.67 o
-3 18 7 182.40 179.97 8.26 o
-3 18 8 50.03 52.87 4.00 o
-3 18 10 228.83 223.25 7.75 o
-3 18 11 134.59 134.10 4.55 o
-3 18 12 117.00 117.81 4.26 o
-3 18 13 7.90 7.75 1.51 o
-3 18 15 42.56 39.86 3.26 o
-3 18 16 35.39 29.40 4.66 o
-3 18 18 91.74 94.27 5.74 o
-3 19 1 5.36 5.67 1.02 o
-3 19 2 658.74 654.06 17.98 o
-3 19 3 314.01 319.50 9.69 o
-3 19 4 11.73 8.79 1.68 o
-3 19 6 12.64 12.97 1.52 o
-3 19 7 344.62 355.52 10.37 o
-3 19 8 11.53 10.94 1.60 o
-3 19 9 91.98 93.14 5.28 o
-3 19 10 17.14 16.04 3.63 o
-3 19 11 26.23 26.58 6.08 o
-3 19 13 114.02 112.35 5.09 o
-3 19 14 71.62 71.51 4.69 o
-3 19 17 48.67 47.98 4.55 o
-3 19 18 10.79 10.32 3.00 o
-3 20 1 411.65 404.16 11.03 o
-3 20 2 10.57 11.12 1.21 o
-3 20 3 71.55 75.06 6.00 o
-3 20 4 9.25 10.33 1.90 o
-3 20 5 162.92 160.39 7.24 o
-3 20 6 43.77 43.21 5.01 o
-3 20 7 70.74 69.49 3.97 o
-3 20 9 34.56 36.25 4.91 o
-3 20 10 16.70 13.43 1.90 o
-3 20 11 31.05 30.76 2.69 o
-3 20 17 17.63 15.98 2.39 o
-3 21 1 50.41 50.28 2.68 o
-3 21 2 182.56 175.10 5.26 o
-3 21 4 60.61 58.53 9.36 o
-3 21 5 14.36 11.82 1.69 o
-3 21 6 27.05 26.69 2.63 o
-3 21 8 392.18 400.43 15.54 o
-3 21 9 17.44 17.31 1.95 o
-3 21 13 120.46 115.84 8.50 o
-3 21 14 58.68 59.79 4.90 o
-3 21 15 92.78 87.52 9.68 o
-3 21 16 71.64 71.45 6.16 o
-3 21 17 56.30 59.70 4.32 o
-3 21 18 48.33 52.26 4.67 o
-3 22 2 10.82 9.53 1.87 o
-3 22 3 26.71 26.61 5.07 o
-3 22 4 12.90 11.72 1.84 o
-3 22 5 223.51 226.38 7.22 o
-3 22 6 57.31 56.53 5.38 o
-3 22 7 20.38 22.09 1.68 o
-3 22 8 23.67 23.55 1.76 o
-3 22 9 52.87 53.82 3.54 o
-3 22 11 188.13 182.09 6.91 o
-3 22 12 17.82 19.57 2.26 o
-3 22 13 54.41 55.97 5.33 o
-3 22 15 42.39 44.67 3.60 o
-3 22 17 69.99 65.99 6.74 o
-3 23 1 75.93 72.66 3.89 o
-3 23 4 89.39 88.43 3.31 o
-3 23 5 65.91 62.80 3.42 o
-3 23 6 94.98 95.79 3.72 o
-3 23 7 9.36 11.35 2.24 o
-3 23 8 45.67 45.24 3.76 o
-3 23 9 25.74 26.79 2.27 o
-3 23 10 109.18 108.33 9.16 o
-3 23 12 140.11 148.89 15.17 o
-3 23 14 26.81 27.75 2.97 o
-3 23 15 25.87 24.51 3.09 o
-3 24 1 56.85 54.55 4.08 o
-3 24 2 55.71 56.06 5.71 o
-3 24 4 159.22 155.21 4.57 o
-3 24 5 160.46 159.07 5.52 o
-3 24 6 36.06 33.82 2.76 o
-3 24 9 16.40 16.93 2.89 o
-3 24 10 6.78 7.29 1.93 o
-3 24 12 12.27 11.87 3.37 o
-3 24 16 24.64 23.43 5.73 o
-3 25 1 104.02 100.07 12.01 o
-3 25 2 61.95 59.92 3.70 o
-3 25 3 199.70 198.72 7.03 o
-3 25 6 13.16 11.97 1.32 o
-3 25 7 170.38 170.77 5.14 o
-3 25 9 72.27 70.10 6.93 o
-3 25 11 20.66 21.30 2.73 o
-3 25 15 63.92 65.07 3.22 o
-3 26 2 87.79 83.85 7.33 o
-3 26 3 40.69 38.79 3.24 o
-3 26 4 14.27 15.13 1.63 o
-3 26 5 39.84 40.72 2.69 o
-3 26 6 126.75 120.04 4.39 o
-3 26 7 23.91 24.12 1.91 o
-3 26 8 6.73 6.29 1.48 o
-3 26 9 60.05 58.53 3.77 o
-3 26 10 315.92 315.58 10.07 o
-3 26 12 27.72 27.77 2.48 o
-3 26 13 5.65 5.22 1.68 o
-3 26 15 13.68 14.10 1.81 o
-3 27 1 61.22 56.46 5.70 o
-3 27 2 81.10 79.93 4.16 o
-3 27 3 63.07 67.86 3.88 o
-3 27 4 56.84 56.52 7.76 o
-3 27 5 37.48 37.47 3.03 o
-3 27 6 44.61 47.28 3.20 o
-3 27 7 9.41 9.93 1.92 o
-3 27 8 17.53 17.01 1.65 o
-3 27 9 37.04 34.02 2.69 o
-3 27 10 25.60 26.78 2.53 o
-3 27 11 19.14 18.07 2.19 o
-3 27 13 102.95 108.21 4.07 o
-3 27 14 6.36 6.20 1.64 o
-3 28 1 56.87 55.12 5.36 o
-3 28 3 25.61 24.94 2.29 o
-3 28 4 31.36 32.90 4.62 o
-3 28 5 50.60 47.30 3.15 o
-3 28 7 7.21 6.63 1.88 o
-3 28 9 61.36 62.25 3.64 o
-3 28 10 5.45 5.80 1.54 o
-3 28 11 56.30 57.17 2.88 o
-3 28 12 55.71 59.71 3.54 o
-3 28 13 19.68 17.89 2.20 o
-3 29 2 30.60 27.91 3.71 o
-3 29 5 15.55 15.61 3.11 o
-3 29 6 17.61 18.82 2.09 o
-3 29 7 37.72 38.93 3.07 o
-3 29 8 183.33 184.73 8.42 o
-3 29 9 17.38 17.22 2.14 o
-3 29 10 20.07 20.17 2.21 o
-3 29 12 33.91 33.84 3.03 o
-3 30 6 16.70 16.26 2.02 o
-3 30 7 27.72 26.70 2.80 o
-3 30 8 11.62 11.32 1.99 o
-3 30 9 118.11 115.14 5.67 o
-3 30 11 34.46 36.97 4.50 o
-3 31 8 57.25 51.32 3.30 o
-3 32 6 46.02 50.41 8.28 o
-3 34 2 21.94 16.76 4.71 o
-2 0 2 244.99 238.25 10.22 o
-2 0 4 710.06 701.85 20.76 o
-2 0 6 34.80 38.62 3.48 o
-2 0 8 447.01 457.73 16.49 o
-2 0 10 378.54 397.94 16.90 o
-2 0 12 322.60 322.81 10.48 o
-2 0 14 117.30 117.83 4.94 o
-2 0 16 10.10 7.15 2.30 o
-2 0 18 56.85 49.53 4.78 o
-2 1 1 539.12 518.54 13.03 o
-2 1 2 1823.32 1752.31 42.84 o
-2 1 3 794.06 772.30 20.26 o
-2 1 4 19.44 18.93 1.29 o
-2 1 5 752.33 756.30 19.73 o
-2 1 7 119.00 121.20 4.17 o
-2 1 8 148.21 146.85 4.88 o
-2 1 9 338.39 334.89 11.84 o
-2 1 10 75.77 73.29 3.44 o
-2 1 11 276.76 275.63 9.26 o
-2 1 12 109.86 105.50 3.60 o
-2 1 14 48.97 51.62 2.42 o
-2 1 15 10.54 8.29 1.54 o
-2 1 16 19.23 18.19 1.28 o
-2 1 17 194.48 172.56 10.01 o
-2 1 18 139.59 122.52 10.21 o
-2 1 19 10.85 9.73 1.63 o
-2 2 1 599.84 606.10 17.29 o
-2 2 2 1039.27 1008.61 24.90 o
-2 2 4 122.74 120.54 3.87 o
-2 2 5 9.58 12.40 1.21 o
-2 2 6 610.03 628.48 16.51 o
-2 2 7 1391.20 1407.82 37.09 o
-2 2 8 623.38 625.67 18.66 o
-2 2 9 7.95 9.61 1.59 o
-2 2 10 62.31 60.42 3.36 o
-2 2 11 53.96 52.44 3.04 o
-2 2 12 301.06 290.74 9.71 o
-2 2 13 64.46 62.51 2.70 o
-2 2 14 40.77 41.30 2.23 o
-2 2 15 211.60 193.45 13.28 o
-2 2 16 32.71 31.52 3.41 o
-2 2 17 15.17 13.98 1.25 o
-2 2 18 24.41 20.54 1.66 o
-2 2 19 118.99 102.68 16.96 o
-2 3 1 27.12 28.53 1.57 o
-2 3 2 46.90 46.64 2.00 o
-2 3 3 132.03 129.57 4.01 o
-2 3 4 196.19 205.22 6.70 o
-2 3 5 712.94 705.59 18.82 o
-2 3 6 1292.23 1305.73 34.78 o
-2 3 7 524.07 523.03 15.88 o
-2 3 8 55.15 61.56 2.95 o
-2 3 9 98.22 97.62 3.75 o
-2 3 10 644.04 652.48 20.97 o
-2 3 11 31.33 31.80 2.35 o
-2 3 12 35.27 34.84 2.57 o
-2 3 13 125.05 119.79 3.99 o
-2 3 14 101.51 100.97 4.85 o
-2 3 15 320.05 304.55 13.91 o
-2 3 16 16.60 14.21 1.20 o
-2 4 1 1514.56 1496.36 41.40 o
-2 4 3 2084.79 2071.84 68.34 o
-2 4 4 10.82 9.79 1.23 o
-2 4 5 23.41 24.42 1.59 o
-2 4 7 332.13 348.89 13.16 o
-2 4 8 31.32 32.02 2.48 o
-2 4 9 403.63 399.09 11.69 o
-2 4 10 23.50 24.77 3.08 o
-2 4 12 45.79 42.83 2.24 o
-2 4 13 312.90 299.77 10.32 o
-2 4 14 192.89 184.83 7.25 o
-2 4 16 51.78 47.43 3.65 o
-2 4 17 8.67 8.15 1.63 o
-2 4 18 4.43 4.76 1.43 o
-2 4 19 24.93 21.71 4.69 o
-2 5 1 146.34 146.56 4.09 o
-2 5 2 234.71 227.73 6.07 o
-2 5 3 30.51 31.31 1.81 o
-2 5 4 1661.94 1738.76 48.09 o
-2 5 5 942.80 991.81 26.55 o
-2 5 6 4.62 4.57 1.39 o
-2 5 7 781.85 794.43 24.85 o
-2 5 8 41.84 38.01 2.26 o
-2 5 9 96.09 97.63 3.76 o
-2 5 10 355.01 358.01 11.10 o
-2 5 12 193.60 193.40 6.22 o
-2 5 13 59.72 56.61 2.87 o
-2 5 15 35.33 32.99 2.15 o
-2 5 16 335.50 284.57 9.34 o
-2 5 17 94.94 73.52 12.42 o
-2 5 20 43.21 44.04 4.78 o
-2 6 1 533.27 531.52 13.50 o
-2 6 2 157.37 156.28 4.43 o
-2 6 3 392.57 412.78 11.78 o
-2 6 4 562.01 547.01 14.29 o
-2 6 5 1159.82 1181.68 31.84 o
-2 6 7 261.58 271.16 8.59 o
-2 6 8 211.19 210.79 6.38 o
-2 6 9 69.14 69.70 3.58 o
-2 6 10 54.45 51.45 3.04 o
-2 6 11 66.87 64.08 2.90 o
-2 6 12 183.27 184.08 5.71 o
-2 6 13 156.01 157.61 6.68 o
-2 6 14 255.86 258.81 12.40 o
-2 6 15 302.41 276.17 25.71 o
-2 6 17 83.86 76.09 3.81 o
-2 6 18 39.41 39.25 6.52 o
-2 6 19 88.26 75.45 13.01 o
-2 6 20 13.78 13.88 3.35 o
-2 7 2 20.82 22.92 1.44 o
-2 7 3 457.75 473.19 12.56 o
-2 7 4 629.49 633.15 16.89 o
-2 7 5 207.35 214.85 6.86 o
-2 7 6 74.56 75.80 2.98 o
-2 7 7 152.01 152.71 4.58 o
-2 7 8 376.90 364.55 11.49 o
-2 7 9 47.59 47.76 4.36 o
-2 7 10 238.96 235.70 8.20 o
-2 7 11 288.94 287.21 8.18 o
-2 7 12 8.10 5.99 1.90 o
-2 7 13 47.47 48.99 2.54 o
-2 7 14 43.92 42.35 2.33 o
-2 7 15 252.19 246.05 9.05 o
-2 7 16 10.47 8.19 1.32 o
-2 7 18 93.90 83.00 12.00 o
-2 8 1 80.15 79.92 2.65 o
-2 8 2 864.28 898.47 23.80 o
-2 8 3 199.93 200.44 5.66 o
-2 8 4 1169.19 1207.52 31.62 o
-2 8 5 434.42 460.59 13.95 o
-2 8 6 829.07 870.42 24.76 o
-2 8 7 86.22 85.77 3.14 o
-2 8 8 310.79 318.51 9.41 o
-2 8 9 156.81 169.25 6.93 o
-2 8 10 13.09 14.17 2.42 o
-2 8 11 104.46 103.32 3.45 o
-2 8 12 30.46 29.81 2.45 o
-2 8 13 20.39 22.32 2.08 o
-2 8 14 207.58 199.94 9.62 o
-2 8 15 90.41 89.35 4.13 o
-2 8 16 74.45 73.75 4.19 o
-2 8 17 20.13 24.95 3.64 o
-2 9 1 214.91 223.63 6.15 o
-2 9 2 2.48 4.06 1.21 o
-2 9 3 442.38 478.00 14.00 o
-2 9 4 277.68 278.38 7.61 o
-2 9 5 894.22 952.11 25.11 o
-2 9 6 148.94 150.70 5.27 o
-2 9 7 58.60 58.73 2.70 o
-2 9 9 608.76 627.86 19.47 o
-2 9 10 233.50 230.02 6.86 o
-2 9 11 137.96 138.22 4.23 o
-2 9 14 58.40 56.97 3.15 o
-2 9 15 11.65 10.80 3.00 o
-2 9 17 115.41 115.07 6.56 o
-2 9 18 45.10 47.79 5.59 o
-2 10 1 67.96 67.27 2.97 o
-2 10 2 498.24 530.44 15.81 o
-2 10 3 128.15 130.92 4.11 o
-2 10 4 146.97 144.44 4.52 o
-2 10 5 66.36 69.22 3.01 o
-2 10 6 271.47 284.87 9.34 o
-2 10 7 199.71 213.76 6.38 o
-2 10 8 438.79 462.45 13.17 o
-2 10 9 159.45 158.81 5.60 o
-2 10 10 13.09 10.62 1.38 o
-2 10 11 203.09 207.29 6.22 o
-2 10 12 234.57 241.01 7.82 o
-2 10 13 30.96 31.74 2.33 o
-2 10 14 47.37 42.08 5.20 o
-2 10 15 36.57 36.59 2.49 o
-2 10 16 194.58 190.69 11.76 o
-2 10 17 8.65 7.78 1.46 o
-2 10 18 243.85 229.59 25.63 o
-2 10 19 11.87 12.74 3.30 o
-2 11 1 183.35 175.18 5.28 o
-2 11 2 42.48 44.87 2.19 o
-2 11 3 130.94 136.53 4.28 o
-2 11 4 121.11 127.37 3.92 o
-2 11 5 54.30 57.51 2.50 o
-2 11 6 430.01 442.65 13.38 o
-2 11 9 52.37 51.24 2.74 o
-2 11 10 137.83 139.99 4.44 o
-2 11 11 438.06 436.72 12.51 o
-2 11 12 87.04 87.53 4.43 o
-2 11 13 13.13 12.10 1.28 o
-2 11 14 6.41 6.17 1.24 o
-2 11 15 87.43 87.63 5.98 o
-2 11 16 93.85 92.00 6.63 o
-2 11 17 49.56 48.40 7.74 o
-2 12 1 1192.51 1205.82 32.00 o
-2 12 2 103.26 107.46 4.92 o
-2 12 3 90.57 100.59 3.76 o
-2 12 4 81.92 82.62 3.02 o
-2 12 5 68.79 68.25 2.70 o
-2 12 6 59.51 60.60 3.44 o
-2 12 7 404.97 405.80 12.97 o
-2 12 8 27.69 29.85 1.86 o
-2 12 9 165.34 164.24 5.36 o
-2 12 13 224.31 219.05 10.45 o
-2 12 18 6.38 4.92 1.51 o
-2 12 19 69.15 70.28 3.78 o
-2 12 20 14.39 11.20 2.93 o
-2 13 1 118.77 111.09 3.90 o
-2 13 2 40.78 39.94 2.58 o
-2 13 3 12.13 11.56 1.48 o
-2 13 4 685.30 739.35 23.14 o
-2 13 5 44.23 45.46 2.26 o
-2 13 6 530.93 549.31 16.24 o
-2 13 7 122.39 123.45 4.23 o
-2 13 8 428.78 441.38 12.38 o
-2 13 9 5.83 6.58 1.19 o
-2 13 10 161.04 160.59 4.96 o
-2 13 11 12.10 12.56 1.38 o
-2 13 12 11.70 11.94 1.81 o
-2 13 13 15.12 13.34 1.33 o
-2 13 15 23.25 20.34 1.58 o
-2 13 16 88.57 80.19 7.27 o
-2 13 17 45.61 44.91 5.44 o
-2 13 18 75.42 69.49 6.57 o
-2 13 20 22.62 25.82 3.87 o
-2 14 1 349.53 354.67 10.27 o
-2 14 2 39.38 41.77 2.58 o
-2 14 3 116.49 123.28 5.36 o
-2 14 5 137.21 144.17 5.21 o
-2 14 7 655.68 683.31 19.81 o
-2 14 8 352.35 351.10 9.76 o
-2 14 9 39.16 45.58 2.35 o
-2 14 10 6.27 5.35 1.15 o
-2 14 11 107.61 107.88 4.25 o
-2 14 12 174.64 173.21 10.27 o
-2 14 13 230.09 225.23 8.31 o
-2 14 14 4.19 4.64 1.38 o
-2 14 15 50.75 44.46 6.76 o
-2 14 16 37.41 29.31 2.73 o
-2 14 17 28.54 28.85 2.37 o
-2 14 18 34.28 29.67 7.75 o
-2 14 19 15.26 14.21 3.17 o
-2 15 1 84.75 86.98 4.62 o
-2 15 2 21.44 21.76 2.43 o
-2 15 3 188.26 183.01 6.31 o
-2 15 4 440.75 437.37 13.17 o
-2 15 5 98.79 99.25 5.45 o
-2 15 6 13.88 14.91 1.61 o
-2 15 7 269.50 272.20 8.01 o
-2 15 8 7.53 8.23 1.21 o
-2 15 9 105.49 110.05 4.28 o
-2 15 10 105.30 102.56 3.54 o
-2 15 11 273.99 277.84 7.98 o
-2 15 12 201.16 197.34 8.15 o
-2 15 13 110.29 101.23 8.62 o
-2 15 14 88.60 87.46 6.32 o
-2 15 16 109.05 104.08 9.77 o
-2 16 1 220.22 217.82 7.34 o
-2 16 2 969.04 987.41 32.79 o
-2 16 4 192.78 199.02 7.64 o
-2 16 5 45.12 48.04 2.71 o
-2 16 6 684.98 700.64 23.63 o
-2 16 7 108.08 115.47 4.53 o
-2 16 9 243.28 242.01 8.22 o
-2 16 10 39.72 38.69 2.47 o
-2 16 11 4.86 6.64 1.16 o
-2 16 12 5.58 5.64 1.73 o
-2 16 13 27.35 25.76 1.97 o
-2 16 14 207.81 204.36 10.68 o
-2 16 17 16.31 17.11 3.48 o
-2 16 18 51.64 49.07 4.58 o
-2 16 20 6.11 9.00 2.97 o
-2 17 1 4.27 5.26 1.65 o
-2 17 2 63.78 62.45 2.79 o
-2 17 3 553.22 547.56 15.58 o
-2 17 4 17.43 17.45 1.54 o
-2 17 5 154.54 157.40 5.64 o
-2 17 8 22.88 23.72 2.29 o
-2 17 9 53.57 54.75 3.75 o
-2 17 11 122.97 123.92 8.45 o
-2 17 12 61.10 58.11 2.66 o
-2 17 13 98.53 95.62 6.69 o
-2 17 14 41.11 38.98 3.85 o
-2 17 15 204.12 186.78 11.18 o
-2 17 17 60.35 60.96 3.54 o
-2 18 1 341.93 342.41 9.20 o
-2 18 2 197.77 196.32 5.68 o
-2 18 3 116.48 117.43 4.19 o
-2 18 4 25.86 28.64 4.06 o
-2 18 5 9.31 11.72 1.29 o
-2 18 6 149.16 152.57 6.10 o
-2 18 7 45.57 46.47 2.17 o
-2 18 8 353.71 358.81 10.87 o
-2 18 9 211.07 210.43 9.56 o
-2 18 10 9.93 8.05 1.68 o
-2 18 12 163.84 166.19 7.26 o
-2 18 13 112.62 114.01 4.33 o
-2 18 14 142.46 150.45 6.40 o
-2 18 15 8.77 7.72 1.88 o
-2 18 17 33.29 37.00 4.31 o
-2 18 18 14.90 15.61 3.20 o
-2 19 1 34.69 34.17 1.55 o
-2 19 2 114.24 118.34 3.81 o
-2 19 4 682.47 695.66 20.39 o
-2 19 5 356.41 365.11 10.46 o
-2 19 6 19.67 20.13 2.33 o
-2 19 8 8.59 8.60 1.41 o
-2 19 9 239.91 236.58 7.98 o
-2 19 11 112.30 112.08 5.56 o
-2 19 12 22.01 20.07 2.07 o
-2 19 13 12.77 12.97 2.12 o
-2 19 14 12.72 9.37 2.19 o
-2 19 15 71.14 66.19 4.06 o
-2 19 16 78.16 74.70 5.30 o
-2 20 1 143.33 145.22 5.31 o
-2 20 2 12.51 13.84 1.75 o
-2 20 3 632.73 638.79 18.16 o
-2 20 4 41.16 41.59 1.97 o
-2 20 5 52.90 54.54 2.96 o
-2 20 7 148.22 137.35 4.55 o
-2 20 8 81.44 80.97 5.13 o
-2 20 9 96.09 95.53 4.24 o
-2 20 11 33.41 30.85 7.92 o
-2 20 12 8.93 10.53 1.95 o
-2 20 13 16.74 16.35 2.13 o
-2 20 18 9.31 11.82 3.11 o
-2 20 19 23.61 24.67 3.99 o
-2 21 1 84.67 81.88 2.63 o
-2 21 2 70.11 67.13 3.29 o
-2 21 3 62.27 63.67 2.97 o
-2 21 4 210.40 217.73 10.22 o
-2 21 5 6.94 10.14 1.34 o
-2 21 6 82.88 86.52 3.35 o
-2 21 7 11.90 11.49 1.65 o
-2 21 9 8.61 7.42 1.72 o
-2 21 10 334.55 332.15 11.29 o
-2 21 11 14.56 13.65 1.97 o
-2 21 15 62.91 62.36 6.93 o
-2 21 16 46.58 49.58 4.69 o
-2 21 17 57.13 59.87 4.10 o
-2 21 18 55.45 57.40 4.12 o
-2 22 1 142.27 136.27 4.41 o
-2 22 3 5.27 7.47 0.95 o
-2 22 4 10.97 10.05 1.94 o
-2 22 6 11.72 11.55 2.88 o
-2 22 7 256.66 253.47 8.22 o
-2 22 8 50.80 50.01 3.18 o
-2 22 9 35.55 34.27 2.97 o
-2 22 10 19.92 18.74 3.06 o
-2 22 13 156.50 154.47 8.86 o
-2 22 15 76.07 77.06 5.36 o
-2 22 17 33.82 35.87 5.48 o
-2 23 1 7.50 6.71 1.42 o
-2 23 2 70.62 71.55 2.46 o
-2 23 3 51.77 51.73 2.09 o
-2 23 4 8.76 7.89 1.60 o
-2 23 6 119.98 111.87 4.45 o
-2 23 7 100.83 103.35 7.23 o
-2 23 8 57.32 55.70 3.36 o
-2 23 10 58.84 57.44 3.63 o
-2 23 11 33.06 32.66 3.52 o
-2 23 12 104.61 106.62 4.91 o
-2 23 14 102.26 107.17 5.06 o
-2 23 16 13.37 9.91 3.15 o
-2 23 17 14.84 13.13 2.40 o
-2 24 1 161.31 163.98 5.16 o
-2 24 2 181.04 179.07 5.17 o
-2 24 3 96.42 93.71 4.24 o
-2 24 4 88.95 85.44 3.12 o
-2 24 6 139.38 133.08 7.40 o
-2 24 7 117.26 122.96 8.52 o
-2 24 8 34.70 36.41 3.02 o
-2 24 10 6.52 7.34 2.38 o
-2 24 16 10.58 11.13 1.81 o
-2 25 1 99.49 98.86 4.21 o
-2 25 3 95.04 94.80 4.35 o
-2 25 4 32.36 28.97 1.92 o
-2 25 5 247.36 238.94 6.91 o
-2 25 9 160.46 161.50 6.05 o
-2 25 11 48.65 48.31 3.48 o
-2 26 1 49.25 40.19 5.13 o
-2 26 2 99.38 93.08 9.25 o
-2 26 3 16.84 12.49 3.12 o
-2 26 4 66.10 65.94 3.45 o
-2 26 5 51.63 49.43 2.79 o
-2 26 6 8.14 5.91 1.38 o
-2 26 7 48.28 45.88 2.66 o
-2 26 8 156.32 151.32 5.05 o
-2 26 9 18.09 19.02 4.28 o
-2 26 10 14.83 12.70 1.67 o
-2 26 11 48.99 48.82 2.90 o
-2 26 12 255.47 251.80 8.00 o
-2 26 14 28.21 32.29 2.62 o
-2 27 3 96.46 92.27 5.17 o
-2 27 4 67.66 64.36 4.93 o
-2 27 5 64.63 65.38 3.51 o
-2 27 6 89.58 87.29 3.34 o
-2 27 7 36.55 35.52 2.41 o
-2 27 8 48.21 47.02 2.70 o
-2 27 10 17.14 18.58 1.77 o
-2 27 11 67.74 66.94 3.24 o
-2 27 12 15.08 15.36 1.79 o
-2 27 13 23.76 22.11 2.09 o
-2 27 15 92.93 95.32 3.86 o
-2 28 1 113.65 101.15 6.26 o
-2 28 2 57.45 52.05 4.35 o
-2 28 3 96.37 92.87 5.26 o
-2 28 5 25.47 23.73 2.14 o
-2 28 6 21.73 23.78 2.45 o
-2 28 7 32.07 32.22 2.28 o
-2 28 8 5.70 5.94 1.47 o
-2 28 11 69.34 67.72 3.18 o
-2 28 12 6.92 6.61 1.63 o
-2 28 13 56.40 57.35 2.96 o
-2 28 14 38.83 39.61 2.67 o
-2 29 2 157.27 156.12 7.04 o
-2 29 4 22.25 21.17 3.30 o
-2 29 5 38.21 40.93 4.46 o
-2 29 7 14.16 15.13 2.05 o
-2 29 8 29.64 28.12 2.89 o
-2 29 9 36.20 31.85 8.80 o
-2 29 10 180.91 172.32 6.40 o
-2 29 11 22.50 22.39 4.08 o
-2 29 12 26.49 25.62 2.86 o
-2 30 3 92.09 82.45 5.16 o
-2 30 4 14.40 16.01 3.09 o
-2 30 5 58.71 49.38 4.48 o
-2 30 7 97.03 99.05 5.99 o
-2 30 9 29.18 27.66 4.06 o
-2 30 11 68.75 70.50 3.81 o
-2 31 3 17.34 16.36 3.03 o
-2 31 4 110.74 111.86 6.09 o
-2 31 5 65.66 63.76 4.84 o
-2 31 6 24.41 20.48 3.13 o
-2 31 8 21.18 15.94 3.11 o
-2 31 10 63.25 62.93 3.62 o
-2 32 4 39.72 44.06 4.35 o
-2 32 6 11.13 9.57 2.88 o
-2 32 8 46.32 50.03 4.57 o
-2 32 9 17.05 11.05 3.00 o
-2 33 5 34.94 35.23 4.15 o
-2 33 6 12.24 12.76 2.90 o
-1 0 2 4268.26 4292.54 53.70 o
-1 0 4 208.09 219.05 7.18 o
-1 0 6 864.36 874.84 52.55 o
-1 0 10 520.63 474.50 17.74 o
-1 0 12 308.65 297.71 22.61 o
-1 0 14 231.99 212.58 14.69 o
-1 0 16 49.92 41.51 2.80 o
-1 1 1 1812.32 1814.15 54.94 o
-1 1 2 35.65 36.34 1.54 o
-1 1 3 1154.77 1156.84 33.90 o
-1 1 4 1436.05 1426.16 37.50 o
-1 1 5 572.33 585.82 16.34 o
-1 1 7 630.22 643.04 19.06 o
-1 1 8 11.55 10.66 1.76 o
-1 1 9 145.02 142.21 4.78 o
-1 1 10 63.74 59.67 3.02 o
-1 1 11 158.64 155.80 6.09 o
-1 1 12 83.64 81.34 5.89 o
-1 1 13 250.01 237.90 7.61 o
-1 1 14 94.05 87.79 6.30 o
-1 1 16 39.09 33.07 3.87 o
-1 1 17 11.28 9.06 1.15 o
-1 2 1 22.84 22.13 1.40 o
-1 2 2 56.69 57.30 1.96 o
-1 2 3 926.12 935.31 26.59 o
-1 2 4 1498.34 1509.91 45.27 o
-1 2 5 6.24 6.09 0.94 o
-1 2 6 29.44 31.11 2.22 o
-1 2 8 516.53 527.79 15.17 o
-1 2 9 1172.50 1177.00 33.85 o
-1 2 10 561.97 551.86 17.92 o
-1 2 12 32.12 33.85 2.51 o
-1 2 13 13.53 13.06 1.36 o
-1 2 14 146.84 144.79 5.34 o
-1 2 15 42.60 43.20 3.53 o
-1 2 16 35.71 31.92 3.82 o
-1 2 17 182.38 164.82 17.12 o
-1 2 18 33.66 37.88 4.94 o
-1 3 1 2.19 2.81 0.71 o
-1 3 2 930.38 950.68 28.97 o
-1 3 3 38.12 39.61 1.74 o
-1 3 4 6.32 6.36 1.03 o
-1 3 5 106.51 108.45 4.19 o
-1 3 6 135.90 144.79 4.62 o
-1 3 7 706.40 732.03 21.61 o
-1 3 8 1383.60 1422.10 37.11 o
-1 3 9 304.91 308.57 11.29 o
-1 3 10 38.58 40.71 2.88 o
-1 3 11 69.97 73.56 5.67 o
-1 3 12 468.59 455.93 17.00 o
-1 3 13 29.49 26.79 1.98 o
-1 3 14 18.21 15.04 2.12 o
-1 3 15 85.92 77.80 5.15 o
-1 3 16 24.32 19.37 1.55 o
-1 3 17 144.31 115.56 21.70 o
-1 4 1 170.64 171.30 5.34 o
-1 4 2 573.45 566.74 16.65 o
-1 4 3 1808.15 1857.14 45.14 o
-1 4 5 2440.47 2518.74 66.91 o
-1 4 6 14.47 14.34 1.40 o
-1 4 7 42.38 43.10 2.33 o
-1 4 9 97.08 104.34 4.96 o
-1 4 10 31.09 30.49 3.31 o
-1 4 11 423.52 416.89 32.31 o
-1 4 12 39.78 39.04 3.47 o
-1 4 13 8.90 8.57 1.26 o
-1 4 14 28.61 29.21 1.95 o
-1 4 15 299.25 271.70 14.00 o
-1 4 16 171.90 161.94 11.17 o
-1 4 18 50.96 45.13 5.10 o
-1 5 1 2038.85 2016.15 49.49 o
-1 5 2 1608.03 1696.27 46.91 o
-1 5 3 294.24 293.24 7.95 o
-1 5 4 101.55 98.67 3.29 o
-1 5 5 59.61 63.91 2.74 o
-1 5 6 1347.51 1420.27 35.90 o
-1 5 7 797.21 830.86 22.40 o
-1 5 8 12.04 12.94 1.40 o
-1 5 9 530.72 531.76 17.86 o
-1 5 10 55.70 53.39 3.59 o
-1 5 11 53.93 64.72 4.69 o
-1 5 12 271.54 272.66 8.64 o
-1 5 14 170.53 168.07 6.56 o
-1 5 15 42.75 40.92 2.03 o
-1 5 17 10.41 9.24 2.04 o
-1 5 18 226.96 225.81 9.95 o
-1 6 1 21.95 22.51 1.45 o
-1 6 2 2194.14 2213.02 70.24 o
-1 6 3 440.48 471.26 13.61 o
-1 6 4 98.93 106.36 5.74 o
-1 6 5 377.11 389.37 10.37 o
-1 6 6 260.16 262.26 7.48 o
-1 6 7 497.30 506.52 14.02 o
-1 6 9 366.62 364.15 12.17 o
-1 6 10 260.42 271.22 10.94 o
-1 6 11 81.76 84.68 5.64 o
-1 6 12 47.70 47.74 3.19 o
-1 6 13 44.40 45.97 2.39 o
-1 6 14 98.40 100.92 4.87 o
-1 6 15 66.82 60.99 4.94 o
-1 6 16 200.98 193.56 17.95 o
-1 6 17 265.77 271.10 8.75 o
-1 7 1 4178.26 4207.18 135.99 o
-1 7 2 7.80 6.70 1.05 o
-1 7 3 43.28 47.01 2.18 o
-1 7 4 52.69 54.64 2.77 o
-1 7 5 398.38 429.16 11.76 o
-1 7 6 901.92 913.54 24.08 o
-1 7 7 146.14 152.57 4.77 o
-1 7 8 19.32 20.61 1.57 o
-1 7 9 146.48 146.66 5.64 o
-1 7 10 158.36 163.00 6.18 o
-1 7 12 163.13 168.77 5.45 o
-1 7 13 281.90 280.98 11.75 o
-1 7 14 28.75 30.13 4.42 o
-1 7 15 71.08 72.42 2.95 o
-1 7 16 31.52 28.93 4.08 o
-1 7 17 221.60 206.35 20.89 o
-1 8 1 194.85 189.29 5.07 o
-1 8 2 220.23 236.08 7.04 o
-1 8 3 105.35 104.04 3.47 o
-1 8 4 1069.42 1116.69 29.42 o
-1 8 5 170.37 172.71 5.37 o
-1 8 6 1226.67 1274.87 33.12 o
-1 8 7 404.83 417.82 11.80 o
-1 8 8 563.02 572.73 21.51 o
-1 8 9 86.54 87.47 3.75 o
-1 8 10 270.92 268.66 9.98 o
-1 8 11 109.23 111.29 4.18 o
-1 8 12 25.44 25.39 1.83 o
-1 8 13 76.27 79.23 5.24 o
-1 8 14 14.73 10.59 2.78 o
-1 8 15 9.04 8.37 1.27 o
-1 8 16 120.31 113.64 4.57 o
-1 8 17 56.73 56.36 4.59 o
-1 8 18 19.50 17.78 2.06 o
-1 8 19 18.91 18.31 3.37 o
-1 9 1 936.69 973.80 25.26 o
-1 9 2 29.79 33.07 2.14 o
-1 9 3 322.07 328.95 10.70 o
-1 9 5 209.30 223.61 6.65 o
-1 9 6 418.53 424.18 11.49 o
-1 9 7 961.94 989.88 27.17 o
-1 9 8 130.41 133.21 4.32 o
-1 9 9 110.09 114.06 4.03 o
-1 9 11 503.33 499.99 18.07 o
-1 9 12 186.43 188.31 6.09 o
-1 9 13 78.34 78.84 4.67 o
-1 9 16 34.63 30.77 2.73 o
-1 9 19 90.04 98.19 5.69 o
-1 9 20 48.13 49.67 4.38 o
-1 10 1 5.75 6.36 1.14 o
-1 10 2 205.81 216.16 6.81 o
-1 10 3 108.60 110.55 4.65 o
-1 10 4 704.59 744.20 20.51 o
-1 10 5 123.10 131.17 4.29 o
-1 10 6 98.73 98.31 3.47 o
-1 10 7 34.30 34.28 1.99 o
-1 10 8 193.64 196.03 5.90 o
-1 10 9 164.28 167.86 6.50 o
-1 10 10 351.63 353.62 11.61 o
-1 10 11 126.81 131.63 4.66 o
-1 10 13 94.84 92.37 3.68 o
-1 10 14 148.15 143.50 9.43 o
-1 10 15 20.59 17.24 1.45 o
-1 10 16 63.94 60.08 4.50 o
-1 10 17 43.06 45.29 5.78 o
-1 10 18 113.70 115.65 4.93 o
-1 10 20 117.35 121.40 6.32 o
-1 11 1 22.89 25.13 1.69 o
-1 11 2 179.03 175.90 5.94 o
-1 11 3 171.58 168.27 5.32 o
-1 11 4 16.81 15.81 1.43 o
-1 11 5 65.06 67.99 2.85 o
-1 11 6 53.33 59.64 2.67 o
-1 11 7 83.44 82.16 3.17 o
-1 11 8 505.53 513.37 15.17 o
-1 11 9 5.75 6.58 1.53 o
-1 11 11 50.12 46.51 3.51 o
-1 11 12 104.23 101.35 4.63 o
-1 11 13 368.80 366.63 18.00 o
-1 11 14 75.55 74.06 6.85 o
-1 11 15 12.19 11.08 1.35 o
-1 11 17 25.50 23.84 2.17 o
-1 11 18 73.40 73.99 5.45 o
-1 11 19 52.07 57.20 4.74 o
-1 12 1 182.89 184.38 5.74 o
-1 12 2 23.40 25.27 2.04 o
-1 12 3 977.05 1021.99 29.66 o
-1 12 4 130.41 128.64 4.11 o
-1 12 5 181.82 194.19 5.86 o
-1 12 6 54.99 53.12 2.58 o
-1 12 7 104.52 103.78 3.70 o
-1 12 8 34.34 35.07 2.00 o
-1 12 9 270.37 264.60 10.28 o
-1 12 10 15.13 16.43 1.66 o
-1 12 11 201.55 191.78 8.21 o
-1 12 13 5.06 3.97 1.20 o
-1 12 15 161.48 153.50 11.00 o
-1 12 16 6.16 6.76 1.37 o
-1 12 19 7.06 13.04 3.29 o
-1 12 21 52.57 54.78 4.61 o
-1 13 1 188.34 192.24 7.48 o
-1 13 2 1211.62 1289.63 43.52 o
-1 13 3 131.69 135.00 4.56 o
-1 13 4 13.25 13.21 1.28 o
-1 13 5 10.26 10.57 1.36 o
-1 13 6 677.59 711.51 20.35 o
-1 13 7 32.21 34.73 2.01 o
-1 13 8 497.59 499.13 14.42 o
-1 13 9 60.12 59.82 2.78 o
-1 13 10 266.28 267.55 7.89 o
-1 13 11 6.06 6.67 1.51 o
-1 13 12 88.36 86.76 3.98 o
-1 13 13 18.73 19.24 1.43 o
-1 13 14 31.10 30.45 4.98 o
-1 13 17 7.39 8.48 1.92 o
-1 13 18 59.42 50.74 4.68 o
-1 13 19 38.64 39.51 4.35 o
-1 13 20 48.17 48.49 4.57 o
-1 14 1 7.40 8.73 1.36 o
-1 14 2 15.39 17.24 1.76 o
-1 14 3 301.25 316.80 10.58 o
-1 14 4 50.04 51.32 2.44 o
-1 14 5 144.72 148.90 4.67 o
-1 14 7 24.40 25.87 2.84 o
-1 14 9 769.75 773.81 23.00 o
-1 14 10 289.35 288.62 8.54 o
-1 14 11 36.74 38.17 2.23 o
-1 14 13 78.46 80.43 8.27 o
-1 14 14 91.15 81.94 6.66 o
-1 14 15 96.30 86.37 7.55 o
-1 14 17 68.16 69.89 3.81 o
-1 14 18 27.73 25.31 4.36 o
-1 14 20 20.87 20.44 3.26 o
-1 14 21 14.64 9.92 2.93 o
-1 15 1 501.16 517.54 16.20 o
-1 15 2 19.97 21.24 1.93 o
-1 15 3 186.12 191.01 6.09 o
-1 15 4 13.60 14.99 2.20 o
-1 15 5 134.16 138.32 4.42 o
-1 15 6 503.04 510.07 15.22 o
-1 15 7 112.48 110.72 3.87 o
-1 15 8 31.01 33.98 1.93 o
-1 15 9 241.63 248.58 7.18 o
-1 15 10 4.16 6.93 2.21 o
-1 15 11 60.37 58.39 2.60 o
-1 15 12 85.35 84.39 6.71 o
-1 15 13 194.46 181.66 13.03 o
-1 15 14 224.91 211.14 16.95 o
-1 15 15 62.34 53.21 7.14 o
-1 15 16 65.82 70.59 5.52 o
-1 15 18 70.91 73.49 5.26 o
-1 16 1 16.98 14.94 1.77 o
-1 16 2 18.54 21.05 2.29 o
-1 16 3 215.98 233.95 9.30 o
-1 16 4 1131.40 1160.28 35.94 o
-1 16 6 202.46 213.87 7.01 o
-1 16 7 35.88 36.87 2.06 o
-1 16 8 471.88 478.39 13.56 o
-1 16 9 121.00 126.58 4.61 o
-1 16 11 220.29 219.98 6.52 o
-1 16 12 75.89 68.50 5.89 o
-1 16 15 34.22 31.97 2.84 o
-1 16 16 144.21 144.22 5.56 o
-1 16 19 15.37 15.41 3.26 o
-1 16 20 33.10 29.00 4.14 o
-1 17 1 963.81 983.01 31.29 o
-1 17 2 12.44 12.31 3.05 o
-1 17 3 3.88 4.41 1.45 o
-1 17 4 73.42 74.80 3.58 o
-1 17 5 272.38 277.00 8.81 o
-1 17 7 214.19 226.57 6.96 o
-1 17 8 26.34 29.55 1.80 o
-1 17 9 13.59 12.43 1.29 o
-1 17 11 68.45 70.81 3.71 o
-1 17 13 77.37 77.44 3.85 o
-1 17 14 80.42 77.57 8.48 o
-1 17 15 92.92 95.57 4.38 o
-1 17 16 42.44 38.55 4.68 o
-1 17 17 109.89 103.22 6.23 o
-1 17 19 48.51 51.12 4.75 o
-1 18 1 26.69 25.17 2.03 o
-1 18 2 273.28 280.98 8.34 o
-1 18 3 289.81 293.03 8.57 o
-1 18 4 289.35 296.30 13.53 o
-1 18 5 113.40 115.66 3.85 o
-1 18 6 15.05 15.94 1.51 o
-1 18 8 116.90 113.49 4.12 o
-1 18 9 23.13 21.79 2.80 o
-1 18 10 270.31 286.68 24.09 o
-1 18 11 175.89 188.55 7.74 o
-1 18 14 95.30 91.33 5.70 o
-1 18 15 80.65 83.94 5.54 o
-1 18 16 146.36 146.29 7.54 o
-1 18 19 25.03 28.39 4.26 o
-1 19 1 76.85 73.79 2.70 o
-1 19 2 233.01 237.38 7.40 o
-1 19 4 114.81 116.51 3.74 o
-1 19 6 557.72 571.06 17.89 o
-1 19 7 325.69 332.92 10.10 o
-1 19 8 22.02 18.01 1.96 o
-1 19 11 137.57 142.99 14.93 o
-1 19 13 110.39 110.64 8.01 o
-1 19 14 21.67 20.45 2.26 o
-1 19 16 14.93 11.00 3.52 o
-1 19 17 34.84 31.65 4.36 o
-1 19 18 62.08 68.16 5.24 o
-1 20 2 77.64 78.37 2.68 o
-1 20 3 87.70 88.31 3.09 o
-1 20 5 820.34 843.17 25.33 o
-1 20 6 82.53 81.39 3.44 o
-1 20 7 34.18 34.57 4.09 o
-1 20 9 113.96 110.21 8.59 o
-1 20 10 110.14 104.32 4.47 o
-1 20 11 96.35 98.07 4.88 o
-1 20 13 27.63 21.93 7.10 o
-1 20 19 17.60 20.69 4.57 o
-1 21 1 28.54 29.22 1.63 o
-1 21 2 262.45 257.77 7.53 o
-1 21 3 98.09 98.99 3.16 o
-1 21 4 40.12 38.76 2.15 o
-1 21 5 58.47 57.57 3.11 o
-1 21 6 200.96 211.99 6.78 o
-1 21 7 11.17 10.41 2.75 o
-1 21 8 93.89 91.97 4.03 o
-1 21 11 14.22 10.90 2.29 o
-1 21 12 235.22 242.87 24.55 o
-1 21 13 7.54 8.93 2.06 o
-1 21 17 23.52 17.48 3.31 o
-1 21 18 31.78 32.96 2.53 o
-1 21 19 25.90 27.02 4.14 o
-1 22 1 220.73 221.20 6.91 o
-1 22 2 28.67 26.06 2.68 o
-1 22 3 158.07 152.81 5.05 o
-1 22 6 8.17 6.27 1.51 o
-1 22 9 239.92 226.43 7.59 o
-1 22 10 40.74 38.99 5.91 o
-1 22 11 50.36 55.95 3.56 o
-1 22 12 11.35 9.47 2.00 o
-1 22 13 9.15 8.70 2.09 o
-1 22 14 8.30 6.81 2.14 o
-1 22 15 114.68 110.96 5.20 o
-1 22 16 38.47 36.91 4.43 o
-1 22 17 76.10 74.78 4.39 o
-1 23 1 416.33 423.89 13.11 o
-1 23 4 35.65 34.71 2.43 o
-1 23 5 21.23 21.35 1.82 o
-1 23 6 9.17 10.91 1.33 o
-1 23 8 134.39 130.04 6.81 o
-1 23 9 109.61 113.18 6.81 o
-1 23 10 28.11 28.38 5.14 o
-1 23 12 59.19 62.72 3.89 o
-1 23 13 28.67 26.28 5.15 o
-1 23 14 81.07 77.29 4.33 o
-1 23 16 57.74 54.73 3.18 o
-1 24 1 252.45 266.26 10.68 o
-1 24 2 15.14 17.33 1.79 o
-1 24 3 214.48 206.37 9.03 o
-1 24 4 213.20 209.01 7.67 o
-1 24 5 122.07 124.10 4.06 o
-1 24 6 109.31 107.82 3.79 o
-1 24 7 4.38 5.35 1.32 o
-1 24 8 93.58 89.53 3.64 o
-1 24 9 66.97 65.89 3.76 o
-1 24 10 31.29 30.36 3.60 o
-1 24 14 7.86 7.54 1.73 o
-1 25 1 17.35 14.54 4.23 o
-1 25 2 126.78 131.20 9.38 o
-1 25 3 111.55 113.65 5.66 o
-1 25 5 72.13 68.76 2.87 o
-1 25 6 13.41 14.40 2.28 o
-1 25 7 242.12 246.16 8.55 o
-1 25 8 8.50 6.53 1.47 o
-1 25 11 125.86 122.64 5.90 o
-1 25 13 30.60 32.41 3.91 o
-1 25 16 6.42 7.28 1.77 o
-1 26 1 26.39 24.17 2.02 o
-1 26 2 96.37 87.83 6.15 o
-1 26 3 48.10 50.67 3.14 o
-1 26 4 109.92 102.41 16.27 o
-1 26 5 11.67 11.93 1.66 o
-1 26 6 32.81 31.68 2.47 o
-1 26 7 53.25 52.03 2.74 o
-1 26 8 6.65 6.73 1.51 o
-1 26 9 55.64 51.69 2.91 o
-1 26 10 146.95 147.52 5.12 o
-1 26 12 20.15 17.07 1.82 o
-1 26 13 29.38 31.30 2.64 o
-1 26 14 164.32 169.65 5.73 o
-1 26 16 27.58 25.20 3.88 o
-1 27 1 92.68 92.76 4.12 o
-1 27 2 127.27 123.73 4.88 o
-1 27 3 12.15 11.71 1.90 o
-1 27 4 11.55 10.73 3.39 o
-1 27 5 126.65 120.11 14.09 o
-1 27 6 43.19 43.45 3.02 o
-1 27 7 46.36 44.60 2.62 o
-1 27 8 112.55 112.51 4.56 o
-1 27 9 24.96 24.70 2.07 o
-1 27 10 43.38 44.52 3.19 o
-1 27 11 7.67 6.21 1.63 o
-1 27 12 13.87 14.95 1.80 o
-1 27 13 93.74 94.72 3.91 o
-1 27 14 6.62 6.70 1.73 o
-1 27 15 22.16 22.64 2.80 o
-1 28 2 60.56 58.05 3.43 o
-1 28 3 106.26 95.82 5.66 o
-1 28 4 26.21 24.68 3.63 o
-1 28 5 116.03 111.76 6.35 o
-1 28 6 31.11 30.98 2.75 o
-1 28 7 19.70 20.64 2.05 o
-1 28 8 13.03 14.05 1.61 o
-1 28 9 12.48 11.25 1.63 o
-1 28 10 17.69 17.27 2.65 o
-1 28 13 62.72 62.19 3.51 o
-1 28 14 8.02 8.53 2.25 o
-1 29 1 49.51 47.12 4.57 o
-1 29 2 92.43 83.03 4.10 o
-1 29 3 27.50 22.52 3.49 o
-1 29 4 113.21 111.95 6.28 o
-1 29 6 17.94 14.71 3.54 o
-1 29 7 36.93 36.74 4.77 o
-1 29 9 10.94 11.06 1.61 o
-1 29 10 31.00 31.00 2.44 o
-1 29 11 29.52 30.19 4.13 o
-1 29 12 137.07 138.08 5.81 o
-1 29 13 23.22 24.11 2.24 o
-1 30 3 16.34 13.13 3.31 o
-1 30 4 17.41 17.38 3.46 o
-1 30 5 93.28 88.43 5.77 o
-1 30 7 48.09 55.25 5.07 o
-1 30 9 74.96 73.79 5.57 o
-1 30 11 31.53 35.11 3.13 o
-1 30 13 32.58 32.06 4.44 o
-1 31 1 46.49 44.98 4.38 o
-1 31 3 123.19 116.11 6.41 o
-1 31 4 32.16 31.16 4.39 o
-1 31 5 22.43 21.62 3.40 o
-1 31 6 107.73 107.75 6.35 o
-1 31 7 56.08 48.02 4.78 o
-1 31 8 33.69 34.75 4.50 o
-1 31 10 12.72 12.02 3.18 o
-1 32 2 45.55 40.31 4.37 o
-1 32 3 79.19 79.71 5.36 o
-1 32 4 9.75 9.64 3.11 o
-1 32 6 52.75 51.55 4.80 o
-1 32 10 39.31 36.23 4.36 o
-1 33 1 61.88 63.79 4.87 o
-1 33 2 41.34 41.45 4.40 o
-1 33 3 18.86 18.61 3.08 o
-1 33 4 12.99 9.02 2.97 o
-1 33 7 29.10 33.28 4.36 o
-1 33 8 14.26 13.20 3.13 o
-1 34 2 91.87 92.63 5.61 o
0 0 4 1822.98 1802.43 53.62 o
0 0 6 157.60 141.67 6.30 o
0 0 8 796.15 776.64 26.96 o
0 0 12 478.26 488.56 26.81 o
0 0 14 218.87 208.97 25.95 o
0 1 3 2153.83 2194.73 79.71 o
0 1 4 80.83 81.95 3.12 o
0 1 5 826.91 818.27 24.42 o
0 1 6 384.51 387.50 13.25 o
0 1 7 337.34 330.10 11.69 o
0 1 8 26.58 25.84 2.28 o
0 1 9 419.29 405.53 16.19 o
0 1 10 25.09 21.06 3.43 o
0 1 11 145.63 140.06 6.72 o
0 1 12 22.55 16.62 4.10 o
0 1 13 51.49 46.72 2.68 o
0 1 14 65.50 60.22 4.73 o
0 1 15 194.54 192.32 6.22 o
0 1 16 67.79 68.10 5.03 o
0 2 2 1177.99 1202.96 43.15 o
0 2 3 19.04 17.71 1.69 o
0 2 5 875.46 876.40 23.40 o
0 2 6 1232.21 1247.06 32.11 o
0 2 9 22.25 19.73 2.14 o
0 2 10 363.13 369.94 20.35 o
0 2 11 817.95 853.01 31.01 o
0 2 12 394.69 399.97 14.28 o
0 2 14 15.49 14.04 1.39 o
0 2 16 47.44 47.22 4.87 o
0 3 1 119.58 126.26 6.83 o
0 3 4 815.61 837.42 23.13 o
0 3 5 9.34 8.95 1.18 o
0 3 6 11.35 10.42 1.51 o
0 3 7 71.47 70.07 3.51 o
0 3 8 64.64 61.86 3.33 o
0 3 9 539.97 526.47 15.32 o
0 3 10 1233.25 1235.88 40.12 o
0 3 11 132.83 142.36 12.31 o
0 3 12 27.04 26.52 2.72 o
0 3 13 46.25 45.18 2.06 o
0 3 14 255.47 243.67 9.40 o
0 3 15 22.79 22.54 1.95 o
0 3 17 48.57 47.81 4.38 o
0 4 0 65.71 66.03 2.64 o
0 4 1 3046.06 3213.10 88.17 o
0 4 2 760.50 767.05 22.18 o
0 4 3 674.63 656.64 17.77 o
0 4 4 499.85 521.76 14.66 o
0 4 5 1339.26 1365.19 37.77 o
0 4 7 1865.00 1961.95 52.85 o
0 4 8 27.10 25.09 2.14 o
0 4 9 71.98 74.95 3.57 o
0 4 10 7.79 9.02 2.38 o
0 4 12 24.71 22.23 1.99 o
0 4 13 383.11 362.57 14.12 o
0 4 14 50.08 48.92 3.53 o
0 4 15 30.64 33.50 4.01 o
0 4 16 12.69 13.76 1.72 o
0 4 17 224.46 229.15 9.09 o
0 4 18 126.39 133.63 6.38 o
0 5 1 2.27 2.78 0.92 o
0 5 2 2709.28 2834.28 100.15 o
0 5 3 1232.52 1243.93 31.99 o
0 5 4 1479.98 1493.32 38.66 o
0 5 5 203.97 204.45 6.40 o
0 5 6 7.26 8.02 1.40 o
0 5 7 104.49 110.20 3.95 o
0 5 8 820.76 860.72 24.64 o
0 5 9 469.35 480.23 14.16 o
0 5 10 59.21 56.31 4.93 o
0 5 11 255.65 268.62 10.29 o
0 5 12 60.11 63.63 3.62 o
0 5 13 29.86 29.94 3.22 o
0 5 14 162.93 156.40 10.11 o
0 5 16 130.19 134.44 4.92 o
0 5 17 17.14 18.67 3.35 o
0 6 0 221.02 235.65 7.01 o
0 6 1 153.96 158.97 4.59 o
0 6 2 477.78 479.25 13.32 o
0 6 3 101.39 96.92 3.65 o
0 6 4 1340.57 1366.93 35.59 o
0 6 5 220.56 219.81 9.55 o
0 6 6 59.98 60.23 2.98 o
0 6 7 340.76 352.30 11.26 o
0 6 8 36.24 35.75 2.25 o
0 6 9 132.29 140.20 4.97 o
0 6 11 356.80 357.85 21.52 o
0 6 12 214.44 208.46 6.58 o
0 6 13 76.05 73.79 4.71 o
0 6 14 35.73 34.00 2.67 o
0 6 15 25.42 26.19 4.49 o
0 6 16 33.77 30.38 5.65 o
0 6 17 21.46 16.26 3.33 o
0 6 18 151.16 159.93 7.28 o
0 6 19 191.96 193.80 8.58 o
0 7 1 56.91 54.69 2.16 o
0 7 2 209.72 212.31 8.56 o
0 7 3 4026.96 4171.64 89.12 o
0 7 4 57.14 61.63 3.11 o
0 7 5 101.30 103.95 4.23 o
0 7 6 26.37 27.00 2.05 o
0 7 7 314.37 328.93 10.51 o
0 7 8 826.17 857.33 26.08 o
0 7 9 88.06 89.27 4.03 o
0 7 11 117.19 123.43 5.72 o
0 7 12 39.30 39.24 2.28 o
0 7 13 8.55 5.75 1.74 o
0 7 14 104.13 102.67 5.88 o
0 7 15 225.20 212.07 20.26 o
0 7 16 37.36 34.78 10.66 o
0 7 17 77.25 85.63 5.11 o
0 7 18 18.74 21.17 3.52 o
0 7 19 170.76 173.20 7.95 o
0 8 0 2759.87 2930.50 97.47 o
0 8 1 368.18 380.55 11.89 o
0 8 2 584.57 599.72 17.93 o
0 8 3 171.28 168.07 5.00 o
0 8 4 75.50 80.58 3.17 o
0 8 5 31.41 31.06 2.52 o
0 8 6 960.25 1014.51 30.72 o
0 8 7 69.02 73.12 3.06 o
0 8 8 938.31 966.64 28.15 o
0 8 9 299.47 307.26 9.79 o
0 8 10 272.64 278.20 9.30 o
0 8 11 79.27 76.43 4.45 o
0 8 12 202.46 201.46 6.40 o
0 8 13 50.71 51.05 3.71 o
0 8 14 30.68 31.15 4.40 o
0 8 15 40.03 42.15 5.24 o
0 8 18 53.35 46.49 4.78 o
0 8 19 25.45 21.62 3.48 o
0 9 1 137.25 145.71 4.55 o
0 9 2 253.00 261.52 10.35 o
0 9 3 874.35 912.22 29.62 o
0 9 4 17.33 17.14 1.57 o
0 9 5 303.93 324.97 10.35 o
0 9 6 26.02 26.92 2.16 o
0 9 7 56.47 55.37 2.74 o
0 9 8 507.98 507.13 16.29 o
0 9 9 871.14 886.66 28.69 o
0 9 10 99.78 97.28 5.87 o
0 9 11 124.57 120.23 4.27 o
0 9 13 348.11 345.84 13.55 o
0 9 14 115.85 115.37 6.73 o
0 9 15 31.74 29.67 2.49 o
0 9 18 12.48 11.49 3.55 o
0 9 21 60.94 63.46 4.78 o
0 10 0 247.63 262.62 8.45 o
0 10 1 18.90 20.61 1.57 o
0 10 2 36.49 41.92 2.20 o
0 10 3 9.77 8.73 1.38 o
0 10 4 130.05 132.47 4.78 o
0 10 5 148.52 151.98 4.84 o
0 10 6 756.14 801.03 26.07 o
0 10 7 86.97 89.94 3.99 o
0 10 8 39.38 40.72 2.17 o
0 10 9 11.68 11.60 1.53 o
0 10 10 104.04 103.19 5.66 o
0 10 11 110.23 106.77 4.74 o
0 10 12 242.87 238.15 10.83 o
0 10 13 88.31 84.31 3.61 o
0 10 14 20.40 19.35 5.51 o
0 10 15 33.31 28.96 2.67 o
0 10 16 84.30 84.20 13.38 o
0 10 18 60.62 58.93 5.00 o
0 10 19 35.83 35.59 4.50 o
0 10 20 55.14 56.21 4.75 o
0 11 1 1950.10 2000.62 50.57 o
0 11 2 2123.16 2210.83 55.11 o
0 11 4 209.23 211.84 6.37 o
0 11 5 97.30 94.51 3.60 o
0 11 6 4.80 5.58 1.46 o
0 11 7 12.32 14.52 1.50 o
0 11 8 5.96 6.86 2.06 o
0 11 9 96.69 97.35 3.80 o
0 11 10 473.40 484.41 14.94 o
0 11 11 26.44 27.34 2.51 o
0 11 12 7.45 5.73 1.48 o
0 11 13 38.74 38.35 2.73 o
0 11 14 69.39 64.46 4.15 o
0 11 15 255.09 257.48 8.29 o
0 11 16 54.32 51.70 4.66 o
0 11 17 8.38 5.75 1.78 o
0 11 20 45.20 42.10 4.40 o
0 11 21 49.04 47.18 4.47 o
0 12 0 130.16 137.70 6.15 o
0 12 1 1720.68 1854.22 61.70 o
0 12 2 5.91 7.57 1.19 o
0 12 3 67.93 66.56 2.63 o
0 12 5 565.15 587.25 17.84 o
0 12 6 116.05 115.41 4.16 o
0 12 7 266.49 277.03 9.49 o
0 12 8 21.48 20.03 1.89 o
0 12 9 114.49 113.46 4.23 o
0 12 10 9.43 8.03 2.29 o
0 12 11 158.35 161.93 6.26 o
0 12 12 8.24 9.03 1.50 o
0 12 13 176.39 176.71 16.86 o
0 12 15 6.62 8.82 2.08 o
0 12 17 92.73 91.33 5.63 o
0 13 1 469.32 495.78 14.23 o
0 13 2 15.56 18.64 1.60 o
0 13 3 168.60 174.33 5.32 o
0 13 4 1463.32 1540.79 44.62 o
0 13 5 143.64 149.58 5.45 o
0 13 7 6.51 7.00 1.70 o
0 13 8 510.63 519.60 20.60 o
0 13 9 13.15 13.51 1.48 o
0 13 10 408.33 407.24 11.73 o
0 13 11 13.69 15.10 1.84 o
0 13 12 133.03 133.96 15.04 o
0 13 13 7.02 5.01 1.20 o
0 13 14 39.09 34.70 4.86 o
0 13 15 23.64 21.83 2.44 o
0 13 16 41.58 40.22 4.65 o
0 13 20 30.52 32.23 4.21 o
0 13 21 28.54 26.21 4.01 o
0 14 0 298.17 282.98 10.91 o
0 14 1 131.28 141.84 4.78 o
0 14 3 7.75 9.31 1.42 o
0 14 4 30.72 34.09 2.47 o
0 14 5 201.77 205.33 7.10 o
0 14 6 45.57 44.62 2.84 o
0 14 7 171.36 178.47 6.16 o
0 14 11 712.49 718.94 22.20 o
0 14 12 199.33 189.49 15.90 o
0 14 13 23.75 23.58 1.86 o
0 14 15 43.88 44.05 4.70 o
0 14 16 40.67 39.24 4.77 o
0 14 17 28.81 26.90 3.88 o
0 14 19 68.40 76.03 5.45 o
0 14 20 17.46 19.28 3.26 o
0 15 1 151.94 161.11 5.35 o
0 15 2 200.56 208.16 6.87 o
0 15 3 376.14 384.88 11.97 o
0 15 4 67.36 67.33 3.25 o
0 15 5 293.73 291.61 9.40 o
0 15 6 10.15 10.67 1.59 o
0 15 7 72.92 73.30 4.93 o
0 15 8 436.92 435.53 13.85 o
0 15 9 123.09 123.08 4.23 o
0 15 10 43.37 44.76 3.46 o
0 15 11 157.10 159.75 5.35 o
0 15 12 36.04 35.10 2.70 o
0 15 13 24.55 24.94 5.23 o
0 15 14 65.80 66.26 3.38 o
0 15 15 105.56 103.00 5.82 o
0 15 16 195.96 188.06 8.80 o
0 15 17 23.15 19.52 3.72 o
0 15 18 41.68 39.77 3.32 o
0 15 20 40.29 39.37 4.41 o
0 16 0 715.07 751.53 27.05 o
0 16 1 193.76 199.02 6.32 o
0 16 2 203.82 208.49 7.27 o
0 16 5 149.94 145.81 5.86 o
0 16 6 1054.18 1086.39 47.27 o
0 16 7 10.72 9.71 1.70 o
0 16 8 157.09 156.72 5.20 o
0 16 9 26.74 27.16 1.70 o
0 16 10 223.02 228.29 7.68 o
0 16 11 115.60 110.24 5.55 o
0 16 13 163.42 163.31 12.37 o
0 16 14 95.87 91.36 5.36 o
0 16 17 32.95 27.61 4.68 o
0 16 18 77.06 78.77 6.97 o
0 16 21 13.54 13.69 3.10 o
0 17 1 55.12 56.34 2.76 o
0 17 2 24.05 24.73 1.86 o
0 17 3 854.36 853.79 30.22 o
0 17 5 7.59 5.83 1.87 o
0 17 6 71.47 75.97 3.72 o
0 17 7 83.35 83.54 3.35 o
0 17 9 239.41 244.53 7.42 o
0 17 10 48.13 48.46 3.16 o
0 17 11 38.48 41.73 7.54 o
0 17 13 61.52 56.03 4.81 o
0 17 15 39.02 41.02 4.74 o
0 17 16 78.34 80.55 5.54 o
0 17 17 78.26 84.97 5.79 o
0 17 18 34.61 34.33 4.81 o
0 17 19 52.36 53.88 4.92 o
0 18 0 14.91 15.08 3.66 o
0 18 1 112.88 115.08 4.48 o
0 18 2 358.42 366.75 11.28 o
0 18 3 32.57 32.96 2.94 o
0 18 4 213.61 220.00 8.64 o
0 18 5 184.12 191.42 7.12 o
0 18 6 311.64 319.90 9.98 o
0 18 7 75.79 81.93 3.62 o
0 18 10 79.23 81.60 3.91 o
0 18 11 7.50 8.80 1.87 o
0 18 12 170.84 171.91 10.40 o
0 18 13 108.32 109.25 9.54 o
0 18 16 44.04 44.74 4.74 o
0 18 17 52.58 46.03 4.61 o
0 18 18 126.78 138.17 10.31 o
0 18 19 10.60 11.91 3.16 o
0 19 1 106.70 107.49 4.85 o
0 19 2 103.21 102.73 3.47 o
0 19 3 89.39 87.56 3.11 o
0 19 4 304.14 307.63 9.13 o
0 19 6 84.70 92.55 3.67 o
0 19 7 6.64 7.49 1.48 o
0 19 8 350.44 364.06 16.43 o
0 19 9 236.43 247.02 28.03 o
0 19 10 18.52 20.38 3.31 o
0 19 13 65.98 70.24 6.14 o
0 19 15 88.12 82.68 5.64 o
0 19 16 16.02 15.41 3.56 o
0 19 18 11.33 13.78 2.91 o
0 19 19 12.73 13.60 3.18 o
0 19 20 36.91 33.29 4.28 o
0 20 0 674.49 680.96 21.23 o
0 20 1 258.59 254.94 8.37 o
0 20 3 12.27 11.24 1.82 o
0 20 4 69.43 74.09 2.71 o
0 20 5 36.16 37.94 2.19 o
0 20 7 893.02 957.52 34.88 o
0 20 8 111.49 114.73 4.48 o
0 20 9 21.24 23.01 4.86 o
0 20 11 72.94 77.44 3.97 o
0 20 12 112.02 113.26 10.97 o
0 20 13 74.46 71.13 4.05 o
0 20 15 18.94 18.11 2.36 o
0 21 2 154.90 151.89 4.75 o
0 21 3 35.06 36.82 2.66 o
0 21 4 294.25 294.27 12.71 o
0 21 5 80.89 83.80 2.99 o
0 21 6 11.85 12.29 3.99 o
0 21 7 37.54 39.35 3.75 o
0 21 8 158.06 155.18 5.50 o
0 21 10 91.60 85.09 4.35 o
0 21 11 8.02 6.15 1.82 o
0 21 13 16.24 18.06 2.20 o
0 21 14 137.54 147.24 16.11 o
0 21 16 10.15 8.92 2.39 o
0 22 1 299.53 301.69 9.64 o
0 22 2 74.35 76.97 3.82 o
0 22 3 199.25 202.30 6.50 o
0 22 4 67.91 75.74 5.19 o
0 22 5 148.32 150.15 4.34 o
0 22 7 7.89 8.75 1.67 o
0 22 9 21.68 15.27 1.83 o
0 22 11 184.33 176.72 6.56 o
0 22 12 30.85 31.29 3.18 o
0 22 13 58.98 63.44 4.66 o
0 22 16 7.74 9.16 3.01 o
0 22 17 75.33 81.92 4.35 o
0 22 18 33.10 35.80 2.47 o
0 23 1 74.34 78.23 3.59 o
0 23 2 336.99 337.60 9.22 o
0 23 3 281.76 272.47 14.70 o
0 23 6 11.26 12.05 1.36 o
0 23 8 8.48 8.49 1.67 o
0 23 9 10.29 10.61 1.50 o
0 23 10 123.21 118.52 4.33 o
0 23 11 89.67 85.92 3.70 o
0 23 12 10.52 11.60 1.70 o
0 23 14 47.21 47.50 3.01 o
0 23 15 18.21 20.09 1.98 o
0 23 16 53.77 56.50 4.50 o
0 23 18 24.56 28.26 4.26 o
0 24 0 566.04 580.29 22.90 o
0 24 3 337.70 331.79 23.62 o
0 24 5 224.59 225.71 7.18 o
0 24 6 207.21 199.41 6.63 o
0 24 7 120.21 123.51 5.00 o
0 24 8 108.32 108.27 4.48 o
0 24 9 7.72 9.06 1.51 o
0 24 10 45.35 48.50 2.89 o
0 24 11 31.14 28.76 3.90 o
0 24 12 27.20 27.25 4.08 o
0 24 14 15.35 16.79 1.89 o
0 24 16 6.92 6.98 1.60 o
0 24 17 4.52 5.25 1.55 o
0 25 1 58.93 62.54 7.79 o
0 25 3 53.95 51.94 2.47 o
0 25 4 88.32 91.43 4.54 o
0 25 5 101.19 98.06 4.03 o
0 25 6 7.72 9.01 1.72 o
0 25 7 45.06 43.71 2.53 o
0 25 8 5.33 4.96 1.60 o
0 25 9 190.43 194.81 6.25 o
0 25 10 21.83 27.59 3.36 o
0 25 11 9.34 7.85 1.66 o
0 25 13 82.46 85.23 3.78 o
0 25 15 18.87 21.47 2.40 o
0 25 16 6.13 4.76 1.54 o
0 26 0 99.61 94.35 5.37 o
0 26 2 12.37 12.27 1.78 o
0 26 3 28.34 26.02 2.36 o
0 26 4 58.87 57.61 2.69 o
0 26 5 33.87 30.23 2.70 o
0 26 6 110.40 99.33 4.28 o
0 26 8 8.55 8.61 1.55 o
0 26 9 44.16 44.15 2.75 o
0 26 10 8.13 8.52 1.89 o
0 26 11 57.91 60.97 3.15 o
0 26 12 105.60 108.95 4.27 o
0 26 14 21.49 18.67 2.03 o
0 26 15 11.74 10.90 1.61 o
0 26 16 82.49 91.41 4.13 o
0 27 1 13.64 13.37 2.87 o
0 27 2 13.57 10.37 2.15 o
0 27 3 90.88 90.85 6.42 o
0 27 4 122.35 127.85 6.70 o
0 27 5 31.14 34.95 2.85 o
0 27 6 16.61 15.79 2.85 o
0 27 7 131.80 124.97 5.08 o
0 27 8 20.20 16.24 2.10 o
0 27 9 22.64 20.59 1.82 o
0 27 10 114.06 114.88 4.30 o
0 27 11 10.04 10.03 1.89 o
0 27 12 32.30 30.86 2.63 o
0 27 13 19.36 18.02 3.14 o
0 27 14 9.42 10.98 1.78 o
0 27 15 100.93 108.43 4.62 o
0 28 0 69.35 66.14 5.09 o
0 28 1 94.72 89.18 4.14 o
0 28 2 45.87 44.89 3.21 o
0 28 3 6.81 6.81 1.91 o
0 28 4 47.42 42.28 4.98 o
0 28 5 91.35 83.53 3.75 o
0 28 6 8.24 7.73 2.47 o
0 28 7 104.42 102.67 4.52 o
0 28 8 57.88 60.93 3.67 o
0 28 9 10.43 11.17 2.05 o
0 28 10 6.90 6.90 2.05 o
0 28 12 25.49 24.83 4.19 o
0 29 1 52.01 56.91 3.46 o
0 29 2 89.69 85.90 5.49 o
0 29 3 62.39 54.83 5.08 o
0 29 4 82.96 80.11 5.63 o
0 29 5 24.59 23.55 3.69 o
0 29 6 53.51 52.97 5.05 o
0 29 9 32.27 33.02 3.11 o
0 29 10 7.01 7.69 2.08 o
0 29 12 23.38 25.25 2.47 o
0 29 13 20.86 21.91 1.89 o
0 29 14 78.84 75.33 5.58 o
0 30 1 20.34 19.22 2.17 o
0 30 5 31.86 28.53 4.71 o
0 30 7 73.79 70.18 5.51 o
0 30 9 30.53 28.82 4.48 o
0 30 11 46.89 42.76 4.71 o
0 30 13 33.01 29.25 4.38 o
0 31 1 63.58 63.62 3.69 o
0 31 2 112.13 99.14 6.06 o
0 31 3 48.15 44.21 4.67 o
0 31 5 141.12 141.80 7.66 o
0 31 6 45.98 40.56 4.68 o
0 31 7 21.28 15.35 3.36 o
0 31 8 92.62 92.92 6.17 o
0 31 9 40.97 36.91 4.69 o
0 31 10 34.99 37.76 4.65 o
0 32 0 64.50 61.76 4.98 o
0 32 1 46.26 48.87 4.78 o
0 32 2 20.63 21.84 3.39 o
0 32 4 15.51 19.62 3.38 o
0 32 5 52.82 50.01 4.94 o
0 32 6 14.68 12.19 3.25 o
0 32 7 14.66 17.26 3.34 o
0 32 8 58.00 56.41 5.14 o
0 33 1 29.03 24.00 4.20 o
0 33 2 16.55 12.46 3.18 o
0 33 3 103.86 93.59 5.95 o
0 33 4 38.32 37.73 4.61 o
0 33 5 25.10 23.42 4.30 o
0 33 6 9.89 12.43 3.27 o
0 33 9 18.15 19.99 3.38 o
0 34 3 12.74 12.93 3.17 o
0 34 4 71.52 70.78 5.42 o
0 35 5 67.82 69.07 5.50 o
1 0 0 1316.66 1379.90 34.05 o
1 0 4 255.10 254.66 7.70 o
1 0 6 357.75 332.21 21.81 o
1 0 8 116.00 109.35 7.13 o
1 0 10 591.50 579.88 20.81 o
1 0 12 23.85 27.02 7.13 o
1 0 14 336.02 344.53 17.43 o
1 1 0 906.59 887.73 24.17 o
1 1 1 1807.96 1756.84 49.97 o
1 1 2 511.87 494.46 15.67 o
1 1 3 390.99 370.34 10.42 o
1 1 4 6.92 6.41 1.25 o
1 1 5 1464.39 1420.49 36.30 o
1 1 6 40.08 38.03 3.14 o
1 1 7 449.34 445.95 15.76 o
1 1 8 33.63 38.92 3.11 o
1 1 9 165.18 159.94 5.94 o
1 1 10 47.97 51.41 5.47 o
1 1 11 227.40 217.99 13.99 o
1 1 12 27.26 26.27 3.19 o
1 1 13 138.93 154.65 7.32 o
1 1 14 8.12 9.28 1.91 o
1 1 16 40.87 39.30 4.33 o
1 2 0 1146.45 1142.98 27.68 o
1 2 1 76.91 76.85 2.30 o
1 2 2 1880.80 1879.86 56.72 o
1 2 3 517.57 493.42 16.82 o
1 2 4 555.08 545.32 17.56 o
1 2 6 10.34 9.94 1.54 o
1 2 7 585.32 571.27 16.61 o
1 2 8 786.57 776.92 27.23 o
1 2 10 59.38 55.60 3.73 o
1 2 11 68.44 62.01 4.90 o
1 2 12 264.34 269.40 13.10 o
1 2 13 505.39 509.98 16.86 o
1 2 14 211.11 215.51 8.82 o
1 3 0 3617.92 3444.29 88.65 o
1 3 1 126.39 127.96 3.61 o
1 3 2 62.63 63.14 2.27 o
1 3 3 71.15 70.58 3.02 o
1 3 4 1257.51 1200.41 36.13 o
1 3 5 3.50 3.98 1.15 o
1 3 6 582.53 579.61 17.38 o
1 3 7 11.41 10.26 1.71 o
1 3 8 46.26 45.13 4.85 o
1 3 9 51.54 52.66 3.96 o
1 3 10 33.12 32.65 3.17 o
1 3 11 330.34 331.77 12.72 o
1 3 12 885.66 880.26 36.40 o
1 3 13 40.76 39.23 2.56 o
1 3 14 18.91 21.53 3.72 o
1 3 15 29.55 35.61 4.20 o
1 3 16 100.20 93.47 5.06 o
1 3 17 15.32 14.98 3.30 o
1 4 0 484.00 478.49 11.80 o
1 4 1 2467.86 2478.77 75.74 o
1 4 2 12.56 13.51 1.24 o
1 4 3 2298.27 2230.97 58.00 o
1 4 4 488.42 473.04 16.26 o
1 4 5 496.88 476.44 14.51 o
1 4 6 349.44 345.25 9.73 o
1 4 7 819.78 810.49 22.26 o
1 4 9 1232.10 1252.84 37.77 o
1 4 10 31.34 28.98 3.08 o
1 4 11 61.74 57.15 8.20 o
1 4 12 19.10 21.41 2.10 o
1 4 13 10.77 12.06 1.81 o
1 4 14 14.21 15.67 2.38 o
1 4 15 291.30 290.97 10.90 o
1 4 16 48.08 50.21 4.61 o
1 4 17 38.09 37.82 4.50 o
1 5 0 2907.62 2929.55 71.44 o
1 5 1 37.97 36.18 1.86 o
1 5 2 19.00 18.82 1.49 o
1 5 4 1103.33 1135.29 40.16 o
1 5 5 205.63 211.20 6.68 o
1 5 6 959.82 946.71 25.69 o
1 5 7 89.75 85.98 3.55 o
1 5 8 9.22 11.44 1.49 o
1 5 9 96.22 99.16 4.06 o
1 5 10 432.47 427.94 14.87 o
1 5 11 204.65 201.68 9.56 o
1 5 12 74.76 72.25 3.58 o
1 5 13 75.74 77.63 6.16 o
1 5 14 58.28 55.20 5.23 o
1 5 15 19.81 17.81 3.20 o
1 5 16 79.33 79.34 5.01 o
1 5 18 87.52 84.28 5.21 o
1 6 0 713.12 732.32 19.18 o
1 6 1 57.93 59.66 2.38 o
1 6 2 86.19 86.68 3.15 o
1 6 3 209.79 211.23 7.20 o
1 6 4 180.38 184.55 8.29 o
1 6 5 57.01 60.11 2.84 o
1 6 6 428.17 454.06 15.53 o
1 6 7 117.36 112.92 4.01 o
1 6 8 44.52 40.74 2.37 o
1 6 9 299.79 297.49 11.23 o
1 6 11 17.79 17.22 4.40 o
1 6 13 263.80 258.91 8.66 o
1 6 14 121.72 128.97 6.98 o
1 6 15 59.33 64.44 6.07 o
1 6 16 25.15 29.21 4.34 o
1 6 17 11.69 13.86 3.33 o
1 7 0 66.07 62.60 2.45 o
1 7 1 4.26 5.82 0.97 o
1 7 3 51.00 49.59 2.32 o
1 7 4 95.54 100.36 3.73 o
1 7 5 2561.27 2673.26 66.41 o
1 7 6 166.11 169.00 7.88 o
1 7 7 135.32 141.46 4.53 o
1 7 8 10.80 12.31 1.63 o
1 7 9 186.27 188.16 7.12 o
1 7 10 571.29 568.45 20.80 o
1 7 11 45.59 47.03 2.85 o
1 7 13 86.85 84.92 3.97 o
1 7 15 29.64 28.61 2.27 o
1 7 16 65.44 61.70 4.81 o
1 7 17 148.33 144.12 6.91 o
1 7 18 28.63 29.20 3.87 o
1 7 19 66.32 67.40 4.99 o
1 8 0 251.97 257.08 6.85 o
1 8 1 325.99 341.67 10.49 o
1 8 2 2031.96 2107.66 61.93 o
1 8 3 161.81 161.17 4.83 o
1 8 4 781.42 785.78 22.81 o
1 8 5 61.90 61.02 3.05 o
1 8 6 25.33 25.74 2.43 o
1 8 8 674.88 691.40 25.40 o
1 8 9 12.03 12.18 1.86 o
1 8 10 590.08 622.03 21.87 o
1 8 11 173.47 174.87 6.44 o
1 8 12 88.50 90.57 3.99 o
1 8 13 64.05 67.36 3.81 o
1 8 14 127.07 125.70 5.85 o
1 8 15 12.33 10.38 3.36 o
1 8 16 26.52 27.86 4.57 o
1 9 0 141.65 139.59 4.16 o
1 9 1 205.43 218.61 6.21 o
1 9 2 63.06 66.71 2.95 o
1 9 3 74.14 74.31 3.29 o
1 9 4 334.80 340.02 9.85 o
1 9 5 615.52 645.26 18.37 o
1 9 7 311.95 325.79 10.73 o
1 9 8 84.73 90.03 5.07 o
1 9 9 6.50 6.80 1.71 o
1 9 10 530.27 545.60 20.72 o
1 9 11 672.42 687.97 19.99 o
1 9 12 78.12 80.94 5.16 o
1 9 13 102.29 95.27 5.06 o
1 9 15 200.24 199.41 7.07 o
1 9 16 56.23 53.60 2.86 o
1 10 0 4.36 6.42 1.16 o
1 10 2 259.84 271.56 8.56 o
1 10 3 127.42 135.30 4.56 o
1 10 4 81.01 84.78 3.55 o
1 10 6 84.17 88.05 3.43 o
1 10 7 150.97 161.02 6.70 o
1 10 8 520.33 524.19 15.67 o
1 10 9 54.45 53.05 3.57 o
1 10 12 42.21 45.57 3.89 o
1 10 13 61.73 68.06 4.90 o
1 10 14 152.19 161.04 6.94 o
1 10 15 54.63 56.29 3.87 o
1 10 16 34.74 37.41 4.70 o
1 10 18 43.68 43.99 4.76 o
1 10 20 43.12 49.61 4.62 o
1 11 0 2048.11 2132.53 52.11 o
1 11 1 1581.24 1611.82 39.59 o
1 11 2 63.57 64.19 2.63 o
1 11 3 1564.41 1565.57 48.81 o
1 11 4 1631.04 1666.98 55.08 o
1 11 6 175.13 183.75 5.94 o
1 11 7 17.13 17.78 1.61 o
1 11 11 74.69 75.30 4.24 o
1 11 12 358.47 365.77 13.83 o
1 11 13 38.71 39.92 4.40 o
1 11 14 18.56 19.41 3.38 o
1 11 15 23.73 29.27 4.40 o
1 11 16 41.54 45.67 2.91 o
1 11 17 151.21 148.28 8.83 o
1 11 18 33.47 36.45 4.72 o
1 12 0 15.00 15.64 1.39 o
1 12 1 1898.15 1979.26 48.94 o
1 12 2 130.01 133.44 3.93 o
1 12 3 1118.17 1178.64 32.70 o
1 12 4 67.21 71.16 2.94 o
1 12 6 5.73 4.72 1.56 o
1 12 7 243.02 256.19 8.07 o
1 12 8 72.18 71.13 3.64 o
1 12 9 305.83 304.70 10.62 o
1 12 11 104.38 102.15 4.06 o
1 12 13 79.51 75.45 4.91 o
1 12 15 119.21 119.98 6.14 o
1 12 17 7.27 8.51 2.00 o
1 12 19 43.43 36.23 4.37 o
1 13 0 31.17 35.95 2.21 o
1 13 1 393.77 405.67 11.74 o
1 13 2 46.37 48.84 2.18 o
1 13 3 423.69 430.40 12.27 o
1 13 4 17.90 18.66 1.73 o
1 13 5 85.49 83.92 3.54 o
1 13 6 1286.44 1307.27 37.32 o
1 13 7 129.91 127.25 4.81 o
1 13 10 282.56 274.54 9.39 o
1 13 12 308.09 322.26 23.18 o
1 13 14 56.21 56.80 4.76 o
1 13 16 14.50 17.13 1.95 o
1 13 17 24.37 25.58 7.93 o
1 13 18 36.69 37.15 4.72 o
1 14 0 55.76 53.86 3.54 o
1 14 1 63.06 64.79 2.88 o
1 14 2 282.56 297.69 9.00 o
1 14 3 168.49 175.28 5.76 o
1 14 4 5.40 5.98 1.38 o
1 14 6 43.77 47.63 2.99 o
1 14 7 124.37 125.18 4.65 o
1 14 8 26.49 26.88 2.88 o
1 14 9 174.23 180.83 6.12 o
1 14 11 10.01 7.91 1.81 o
1 14 13 528.80 529.41 21.40 o
1 14 14 116.49 108.05 5.77 o
1 14 15 11.00 13.66 3.51 o
1 14 17 16.60 15.11 2.01 o
1 14 18 15.64 15.69 3.59 o
1 15 0 265.34 273.59 8.21 o
1 15 1 180.43 195.26 6.48 o
1 15 3 93.21 97.11 4.12 o
1 15 4 131.10 131.52 4.62 o
1 15 5 210.58 217.78 7.32 o
1 15 6 107.11 100.24 6.31 o
1 15 7 373.50 388.33 15.97 o
1 15 8 7.19 12.11 1.75 o
1 15 9 31.44 28.51 1.98 o
1 15 10 298.02 311.95 11.45 o
1 15 11 121.50 114.59 7.57 o
1 15 12 43.99 44.46 4.54 o
1 15 13 72.18 69.82 4.94 o
1 15 14 69.82 65.90 5.09 o
1 15 16 48.43 52.78 8.28 o
1 15 17 43.91 44.51 3.22 o
1 15 18 136.41 132.59 7.34 o
1 15 20 21.35 23.63 4.08 o
1 16 0 86.84 86.89 3.79 o
1 16 1 202.42 201.17 7.98 o
1 16 2 650.82 676.06 24.94 o
1 16 3 146.24 146.63 5.53 o
1 16 4 300.02 299.90 9.82 o
1 16 7 74.28 74.99 3.14 o
1 16 8 773.04 783.32 24.11 o
1 16 9 17.02 18.24 1.64 o
1 16 10 96.51 92.38 4.04 o
1 16 11 18.52 17.17 3.23 o
1 16 12 59.53 61.17 4.85 o
1 16 13 92.87 102.77 5.64 o
1 16 15 100.51 106.75 6.14 o
1 16 16 87.05 93.30 4.46 o
1 16 19 25.74 26.68 4.20 o
1 16 20 31.22 28.36 4.16 o
1 17 0 11.39 10.58 2.22 o
1 17 1 62.09 62.89 3.09 o
1 17 3 25.21 25.73 2.34 o
1 17 4 28.56 29.85 2.59 o
1 17 5 612.23 609.15 19.71 o
1 17 7 17.78 17.54 1.93 o
1 17 8 62.97 61.77 2.89 o
1 17 9 10.61 8.62 1.70 o
1 17 11 214.07 215.57 7.28 o
1 17 12 51.37 48.56 4.72 o
1 17 13 45.67 45.71 4.82 o
1 17 15 38.91 43.87 4.94 o
1 17 17 17.61 18.35 3.12 o
1 17 18 58.77 55.15 4.93 o
1 17 19 58.40 52.26 4.87 o
1 17 20 22.07 17.45 3.26 o
1 18 0 246.45 242.63 8.07 o
1 18 1 116.81 123.40 4.64 o
1 18 2 9.60 10.39 1.38 o
1 18 3 82.08 81.75 3.32 o
1 18 4 388.22 395.42 12.58 o
1 18 5 24.39 24.74 1.81 o
1 18 6 141.96 144.94 4.92 o
1 18 7 89.88 87.52 3.67 o
1 18 8 249.41 251.27 8.16 o
1 18 9 31.82 34.18 3.23 o
1 18 12 48.54 49.01 7.62 o
1 18 14 91.46 90.57 5.69 o
1 18 15 50.37 54.85 5.05 o
1 18 16 18.33 20.15 2.74 o
1 18 18 15.19 15.29 2.89 o
1 18 19 32.83 30.50 4.26 o
1 18 20 93.27 86.53 5.65 o
1 19 0 83.79 84.61 3.46 o
1 19 1 148.14 150.56 4.76 o
1 19 2 48.21 49.04 2.92 o
1 19 3 56.11 56.92 2.76 o
1 19 4 112.63 114.19 4.13 o
1 19 5 88.08 89.20 4.11 o
1 19 6 301.37 302.47 9.17 o
1 19 7 14.34 14.73 1.44 o
1 19 8 47.58 49.88 3.49 o
1 19 9 12.20 11.14 2.32 o
1 19 10 163.01 158.17 5.77 o
1 19 11 136.26 141.68 8.22 o
1 19 12 13.07 15.37 1.99 o
1 19 14 10.96 12.88 3.64 o
1 19 17 57.79 58.84 4.73 o
1 20 0 8.49 8.51 1.08 o
1 20 1 306.36 306.39 8.37 o
1 20 2 593.07 605.56 19.90 o
1 20 3 163.30 169.94 6.16 o
1 20 5 58.52 58.80 3.16 o
1 20 6 47.77 49.90 2.55 o
1 20 7 8.87 7.95 1.34 o
1 20 8 5.48 6.16 1.31 o
1 20 9 817.89 813.28 25.22 o
1 20 10 109.51 101.93 4.37 o
1 20 11 13.87 11.81 1.88 o
1 20 13 37.45 37.54 3.57 o
1 20 14 87.52 91.97 3.90 o
1 20 15 46.67 46.32 4.72 o
1 20 17 10.58 11.64 2.15 o
1 21 0 184.75 178.77 5.55 o
1 21 1 2.69 4.26 1.33 o
1 21 2 5.95 5.73 1.23 o
1 21 4 118.16 121.82 6.51 o
1 21 5 30.32 30.78 3.51 o
1 21 6 243.21 244.74 20.74 o
1 21 7 45.44 47.03 3.54 o
1 21 10 102.13 106.41 5.05 o
1 21 11 12.10 13.92 1.59 o
1 21 12 79.10 80.93 3.56 o
1 21 13 7.45 8.60 1.67 o
1 21 15 12.55 11.22 1.70 o
1 21 16 67.56 63.84 11.14 o
1 21 18 12.82 14.97 3.23 o
1 22 0 18.89 19.20 2.01 o
1 22 1 183.17 180.01 5.66 o
1 22 3 380.95 382.79 11.44 o
1 22 4 130.59 124.83 4.55 o
1 22 5 158.08 154.32 5.33 o
1 22 6 110.62 121.17 4.66 o
1 22 7 116.30 110.96 3.89 o
1 22 9 11.34 11.14 1.48 o
1 22 11 46.94 46.48 4.51 o
1 22 13 118.46 123.92 4.63 o
1 22 14 22.35 22.33 1.97 o
1 22 15 57.98 64.20 4.31 o
1 23 0 395.12 399.42 12.23 o
1 23 1 66.59 64.52 2.61 o
1 23 3 69.27 72.40 3.06 o
1 23 4 212.70 208.03 10.37 o
1 23 5 142.50 138.37 5.01 o
1 23 7 15.72 15.18 2.61 o
1 23 10 7.18 5.81 1.52 o
1 23 11 16.21 14.11 2.28 o
1 23 12 91.49 93.39 4.04 o
1 23 13 57.96 59.86 3.19 o
1 23 16 30.44 29.46 2.36 o
1 23 17 8.93 9.45 1.90 o
1 23 18 32.11 24.98 4.37 o
1 24 2 517.03 515.03 15.32 o
1 24 4 4.61 6.59 1.58 o
1 24 5 331.63 328.97 13.72 o
1 24 7 180.95 190.11 6.68 o
1 24 8 166.91 165.31 6.12 o
1 24 9 95.36 97.24 3.80 o
1 24 10 88.72 86.59 3.65 o
1 24 12 13.55 10.88 2.17 o
1 24 13 13.52 14.97 1.98 o
1 24 14 23.11 22.83 4.74 o
1 24 16 12.81 13.22 1.69 o
1 24 17 8.33 10.49 1.91 o
1 25 1 113.89 112.49 4.39 o
1 25 3 18.91 18.87 1.74 o
1 25 5 90.55 95.75 4.13 o
1 25 6 57.84 56.73 3.40 o
1 25 7 75.97 81.29 4.04 o
1 25 8 17.78 15.38 3.25 o
1 25 9 22.78 24.77 2.34 o
1 25 11 123.43 125.11 4.61 o
1 25 12 25.48 22.88 2.76 o
1 25 13 14.87 15.79 2.38 o
1 25 14 8.12 8.55 1.57 o
1 25 15 44.91 47.13 3.07 o
1 25 16 5.06 5.34 1.54 o
1 26 2 88.05 84.44 5.31 o
1 26 4 12.98 11.82 3.27 o
1 26 5 25.02 23.60 1.75 o
1 26 6 21.64 21.02 2.07 o
1 26 7 17.00 13.05 2.73 o
1 26 8 102.75 103.58 4.76 o
1 26 11 29.31 27.45 2.13 o
1 26 12 10.67 8.77 1.74 o
1 26 13 52.04 49.40 2.76 o
1 26 14 57.54 56.95 4.06 o
1 26 16 20.03 20.97 2.65 o
1 27 0 12.55 13.23 2.24 o
1 27 1 23.93 25.40 2.38 o
1 27 4 9.99 8.05 1.74 o
1 27 5 77.30 74.01 3.70 o
1 27 6 107.34 108.35 4.19 o
1 27 7 39.49 36.85 4.21 o
1 27 8 17.18 17.21 2.27 o
1 27 9 106.09 105.48 4.80 o
1 27 11 7.04 7.99 2.16 o
1 27 12 94.52 98.53 4.01 o
1 27 14 19.86 22.82 2.35 o
1 27 15 22.37 21.93 5.45 o
1 28 0 43.86 41.59 3.12 o
1 28 1 89.18 86.65 4.07 o
1 28 2 56.91 55.22 5.37 o
1 28 3 86.14 88.65 5.98 o
1 28 4 47.35 51.23 5.29 o
1 28 5 18.12 16.77 1.98 o
1 28 6 28.16 24.52 2.91 o
1 28 7 69.36 71.19 4.64 o
1 28 9 72.73 71.22 4.04 o
1 28 10 68.43 66.30 5.43 o
1 28 14 24.00 24.30 2.45 o
1 29 0 111.18 112.68 7.68 o
1 29 1 33.03 33.51 2.95 o
1 29 3 60.20 60.42 5.34 o
1 29 4 55.24 40.69 4.98 o
1 29 5 63.91 58.40 5.22 o
1 29 6 63.83 61.33 3.46 o
1 29 7 17.30 17.71 5.43 o
1 29 8 12.98 13.27 2.11 o
1 29 10 18.55 19.78 2.29 o
1 29 11 26.01 29.63 2.69 o
1 29 12 9.05 8.78 1.63 o
1 30 3 54.55 58.05 5.28 o
1 30 7 40.15 34.78 4.63 o
1 30 9 47.52 40.95 3.18 o
1 31 0 131.06 120.33 5.06 o
1 31 1 42.08 39.07 4.89 o
1 31 3 70.41 69.58 5.54 o
1 31 4 71.51 72.97 5.70 o
1 31 5 42.17 45.57 4.94 o
1 31 7 127.88 118.06 6.91 o
1 31 8 48.67 55.34 5.19 o
1 31 9 14.05 15.59 3.36 o
1 31 10 70.49 63.37 5.30 o
1 31 11 26.88 25.68 4.29 o
1 32 0 25.28 26.84 4.48 o
1 32 1 50.04 54.38 5.07 o
1 32 2 54.51 45.96 4.91 o
1 32 3 38.43 43.04 4.99 o
1 32 4 17.11 17.23 3.48 o
1 32 7 24.49 30.07 4.62 o
1 32 8 19.75 24.75 4.45 o
1 32 9 17.25 12.78 3.31 o
1 32 10 51.53 58.11 5.04 o
1 33 1 51.57 51.37 5.02 o
1 33 3 12.47 10.17 3.36 o
1 33 4 18.14 19.81 3.50 o
1 33 5 134.87 130.01 7.36 o
1 33 6 27.20 25.02 4.51 o
1 33 7 30.80 33.12 4.61 o
1 34 6 44.84 42.99 4.89 o
2 0 0 3075.90 2927.17 71.88 o
2 0 2 341.60 350.45 10.20 o
2 0 8 69.43 64.16 4.37 o
2 0 10 90.02 89.89 6.65 o
2 0 12 333.21 331.14 15.35 o
2 0 14 51.74 52.54 5.34 o
2 1 0 2.95 3.29 0.78 o
2 1 1 899.76 856.10 20.70 o
2 1 2 496.04 489.70 12.42 o
2 1 3 1597.99 1532.41 43.77 o
2 1 4 486.82 490.21 15.89 o
2 1 5 155.64 151.49 5.58 o
2 1 7 859.20 834.91 25.46 o
2 1 8 8.92 8.59 1.72 o
2 1 9 269.55 265.18 8.98 o
2 1 11 44.04 45.78 5.39 o
2 1 12 43.82 50.63 3.43 o
2 1 13 107.54 100.31 6.04 o
2 1 14 24.45 20.43 2.75 o
2 2 0 85.67 87.19 2.68 o
2 2 1 2.71 2.48 0.78 o
2 2 2 406.57 404.35 10.19 o
2 2 3 41.16 39.94 1.75 o
2 2 4 472.79 460.25 13.40 o
2 2 5 577.29 568.16 17.83 o
2 2 6 313.00 299.90 8.90 o
2 2 8 16.21 15.74 2.17 o
2 2 9 296.64 300.80 10.63 o
2 2 10 477.24 458.41 14.98 o
2 2 12 99.65 100.57 4.83 o
2 2 13 113.81 119.24 5.95 o
2 2 14 191.60 196.10 8.69 o
2 2 15 283.72 269.86 10.30 o
2 3 0 604.35 591.94 14.85 o
2 3 2 1276.45 1224.58 29.73 o
2 3 3 69.65 69.23 2.33 o
2 3 4 181.63 183.22 5.27 o
2 3 5 48.51 50.59 2.42 o
2 3 6 499.74 496.29 18.07 o
2 3 7 13.35 10.49 1.48 o
2 3 8 431.86 424.08 13.04 o
2 3 9 45.75 45.14 4.21 o
2 3 10 57.57 55.39 3.29 o
2 3 11 38.22 36.69 2.58 o
2 3 12 19.14 18.69 2.92 o
2 3 13 158.55 170.35 8.40 o
2 3 14 504.41 528.85 29.32 o
2 3 16 10.42 14.28 3.25 o
2 4 0 365.13 360.36 9.34 o
2 4 1 81.03 79.48 2.50 o
2 4 2 158.68 154.23 4.29 o
2 4 3 1428.75 1378.10 36.36 o
2 4 5 1284.86 1266.24 33.00 o
2 4 6 223.49 216.54 7.52 o
2 4 7 409.41 403.95 11.99 o
2 4 8 217.81 222.83 8.98 o
2 4 9 440.65 436.73 13.56 o
2 4 11 735.31 728.23 22.25 o
2 4 12 24.17 27.70 2.70 o
2 4 13 29.45 34.16 2.46 o
2 4 14 26.61 25.97 3.06 o
2 4 15 34.02 32.19 4.50 o
2 5 0 1180.32 1168.62 28.16 o
2 5 1 952.93 937.64 23.77 o
2 5 2 1413.90 1383.07 35.96 o
2 5 3 40.39 41.36 1.97 o
2 5 4 55.07 52.56 2.44 o
2 5 6 449.28 441.16 11.99 o
2 5 7 17.75 19.11 1.62 o
2 5 8 544.43 533.09 17.02 o
2 5 9 44.00 43.69 3.27 o
2 5 10 42.28 41.10 2.71 o
2 5 11 62.54 66.72 4.87 o
2 5 12 207.66 213.25 8.41 o
2 5 13 64.81 67.62 5.05 o
2 5 14 54.94 55.99 3.26 o
2 5 15 8.08 10.17 3.17 o
2 5 16 49.65 41.18 4.66 o
2 5 17 15.94 11.78 3.40 o
2 6 0 1441.44 1469.45 38.10 o
2 6 1 3.76 5.14 0.96 o
2 6 2 433.77 439.30 11.50 o
2 6 3 23.58 21.39 1.53 o
2 6 4 27.92 27.18 1.85 o
2 6 5 214.77 212.00 5.96 o
2 6 6 101.07 98.08 3.57 o
2 6 8 128.20 132.53 4.73 o
2 6 9 60.69 61.14 3.41 o
2 6 10 31.73 33.66 2.67 o
2 6 11 216.86 216.65 6.97 o
2 6 12 18.25 18.33 1.81 o
2 6 14 5.15 5.74 1.82 o
2 6 15 151.05 147.51 6.66 o
2 6 16 48.84 51.11 4.77 o
2 6 17 41.47 44.43 4.76 o
2 7 0 51.71 48.27 2.28 o
2 7 1 2608.78 2580.30 70.34 o
2 7 3 122.99 122.38 4.76 o
2 7 5 37.04 38.04 2.38 o
2 7 6 20.72 21.74 1.53 o
2 7 7 1422.11 1417.10 36.56 o
2 7 8 162.31 163.28 6.04 o
2 7 9 120.85 121.53 6.93 o
2 7 10 9.04 10.59 2.15 o
2 7 11 67.67 67.60 3.15 o
2 7 12 327.86 333.34 10.12 o
2 7 13 20.50 21.17 2.16 o
2 7 15 55.50 55.95 3.59 o
2 7 17 37.86 38.60 4.71 o
2 8 0 382.16 407.88 12.26 o
2 8 1 139.36 133.85 4.09 o
2 8 2 68.27 67.49 2.79 o
2 8 3 171.89 172.96 5.26 o
2 8 4 1105.36 1133.86 33.09 o
2 8 5 57.77 58.34 2.68 o
2 8 6 742.38 753.43 21.27 o
2 8 7 12.46 11.57 1.44 o
2 8 8 5.69 5.77 1.71 o
2 8 10 438.51 453.55 13.78 o
2 8 12 306.09 335.76 10.72 o
2 8 13 80.13 86.65 4.62 o
2 8 14 13.37 14.20 1.61 o
2 8 15 42.26 39.71 7.77 o
2 8 16 69.28 67.03 5.04 o
2 8 18 18.21 13.70 3.55 o
2 9 0 23.44 21.28 1.86 o
2 9 1 725.89 728.03 19.67 o
2 9 2 47.70 46.67 2.44 o
2 9 3 267.45 265.79 8.46 o
2 9 4 142.16 142.74 4.45 o
2 9 5 15.10 15.68 1.58 o
2 9 6 319.71 322.03 9.17 o
2 9 7 386.24 386.36 11.02 o
2 9 9 288.58 284.15 9.17 o
2 9 10 109.25 110.05 5.14 o
2 9 12 464.89 459.09 14.25 o
2 9 13 437.90 447.24 13.57 o
2 9 14 58.54 60.67 3.09 o
2 9 15 64.38 65.13 3.20 o
2 9 17 93.35 83.40 5.44 o
2 9 18 21.18 19.09 3.61 o
2 10 0 268.39 274.26 8.52 o
2 10 3 8.71 9.39 1.27 o
2 10 4 283.87 293.39 8.51 o
2 10 5 239.97 244.65 8.34 o
2 10 6 62.83 67.86 3.10 o
2 10 8 37.75 39.26 2.88 o
2 10 9 102.32 103.15 4.74 o
2 10 10 243.74 250.46 8.23 o
2 10 11 31.74 32.92 2.29 o
2 10 14 13.59 14.67 1.69 o
2 10 15 28.71 30.02 3.56 o
2 10 16 92.14 93.26 5.02 o
2 10 17 29.56 33.38 4.73 o
2 10 18 31.35 29.79 4.57 o
2 11 0 115.28 116.44 4.04 o
2 11 1 48.95 49.29 2.43 o
2 11 2 1459.08 1490.75 45.77 o
2 11 3 961.70 992.34 30.54 o
2 11 4 161.00 165.65 5.84 o
2 11 5 903.27 910.27 31.15 o
2 11 6 1067.71 1106.16 31.46 o
2 11 8 120.06 123.23 4.66 o
2 11 12 24.74 25.87 6.75 o
2 11 13 37.98 40.35 3.39 o
2 11 14 225.96 232.81 31.33 o
2 11 15 37.53 39.46 2.78 o
2 11 16 24.99 24.28 4.72 o
2 11 17 10.88 10.99 3.59 o
2 11 18 22.84 17.56 3.59 o
2 12 0 29.46 28.71 2.01 o
2 12 1 303.57 317.16 8.71 o
2 12 2 71.49 69.85 2.97 o
2 12 3 1532.94 1529.12 43.23 o
2 12 4 114.04 112.12 4.31 o
2 12 5 582.21 596.78 19.25 o
2 12 6 120.94 122.75 4.31 o
2 12 7 16.29 15.23 1.76 o
2 12 8 21.63 19.64 2.16 o
2 12 9 79.95 80.31 4.01 o
2 12 10 36.22 35.69 3.80 o
2 12 11 256.40 256.45 9.08 o
2 12 13 85.62 83.14 4.93 o
2 12 15 33.46 34.30 3.81 o
2 12 17 66.22 55.32 4.94 o
2 13 0 794.55 820.73 25.64 o
2 13 1 126.27 125.65 4.16 o
2 13 2 60.60 60.99 2.64 o
2 13 3 265.76 276.89 8.60 o
2 13 4 118.34 123.93 4.30 o
2 13 5 288.90 290.47 8.71 o
2 13 6 23.10 21.67 1.91 o
2 13 7 33.23 31.16 2.73 o
2 13 8 841.47 849.01 26.93 o
2 13 9 95.09 93.22 4.29 o
2 13 12 116.15 127.28 6.04 o
2 13 14 219.36 219.94 10.79 o
2 13 15 7.56 6.88 1.80 o
2 13 19 20.11 16.40 3.42 o
2 14 0 4.50 5.36 1.33 o
2 14 2 122.19 121.47 4.27 o
2 14 3 11.09 12.50 1.64 o
2 14 4 247.06 254.06 8.46 o
2 14 5 162.83 162.68 5.60 o
2 14 6 19.82 19.10 1.88 o
2 14 7 9.60 9.70 1.73 o
2 14 8 45.50 49.33 4.03 o
2 14 9 78.72 82.84 4.03 o
2 14 10 10.36 11.10 2.05 o
2 14 11 143.55 147.42 6.54 o
2 14 13 13.18 13.61 1.84 o
2 14 15 312.61 315.38 11.75 o
2 14 16 57.71 57.58 10.51 o
2 15 1 470.81 465.56 19.66 o
2 15 2 283.98 286.40 8.91 o
2 15 3 188.57 187.69 6.28 o
2 15 5 36.66 40.03 3.07 o
2 15 6 70.71 70.35 3.36 o
2 15 7 92.99 94.63 4.00 o
2 15 8 108.37 109.78 3.96 o
2 15 9 379.35 384.41 13.01 o
2 15 11 11.01 12.73 3.17 o
2 15 12 163.67 161.58 7.12 o
2 15 13 98.69 103.89 11.61 o
2 15 14 33.40 30.20 2.86 o
2 15 15 21.98 18.12 3.08 o
2 15 16 78.04 80.73 5.84 o
2 15 18 32.78 29.76 4.38 o
2 16 0 58.07 57.23 3.12 o
2 16 1 33.46 29.39 3.55 o
2 16 2 23.21 26.59 3.65 o
2 16 3 177.42 179.46 7.15 o
2 16 4 483.44 475.63 15.78 o
2 16 5 90.55 87.84 3.46 o
2 16 6 305.86 305.56 10.15 o
2 16 9 25.53 27.02 2.11 o
2 16 10 457.34 459.46 16.23 o
2 16 11 19.39 18.73 1.83 o
2 16 12 51.29 51.86 3.85 o
2 16 13 11.17 10.31 1.87 o
2 16 14 3.67 6.76 1.88 o
2 16 15 62.23 63.31 3.73 o
2 16 17 52.53 53.66 3.42 o
2 16 18 59.84 61.66 5.17 o
2 17 0 28.33 29.71 2.81 o
2 17 1 859.59 880.39 27.03 o
2 17 3 46.34 44.83 2.38 o
2 17 4 16.52 16.42 2.10 o
2 17 6 23.81 23.95 1.75 o
2 17 7 371.70 370.95 11.83 o
2 17 9 28.67 28.16 3.38 o
2 17 10 50.21 51.01 2.71 o
2 17 12 5.32 6.63 1.73 o
2 17 13 153.00 157.66 7.98 o
2 17 14 35.72 37.07 3.20 o
2 17 15 36.08 34.73 4.24 o
2 18 0 295.92 294.92 8.17 o
2 18 1 14.42 15.18 1.90 o
2 18 2 117.65 124.20 4.33 o
2 18 3 81.56 79.68 3.21 o
2 18 5 52.36 54.54 2.81 o
2 18 6 323.54 333.25 10.94 o
2 18 7 12.06 11.39 1.41 o
2 18 8 78.83 76.70 4.87 o
2 18 9 34.07 37.96 2.45 o
2 18 10 151.26 151.05 8.09 o
2 18 11 7.20 6.33 2.00 o
2 18 14 28.16 30.42 3.12 o
2 18 16 42.84 42.01 11.06 o
2 18 17 18.17 19.34 2.25 o
2 18 18 18.74 19.40 3.37 o
2 19 0 138.64 135.00 5.58 o
2 19 1 57.26 53.32 2.44 o
2 19 2 64.03 63.16 3.23 o
2 19 3 153.59 155.86 6.34 o
2 19 4 131.85 137.41 4.78 o
2 19 5 18.27 16.16 1.80 o
2 19 6 99.61 97.12 4.34 o
2 19 7 76.52 77.63 3.14 o
2 19 8 234.39 236.61 6.93 o
2 19 9 24.06 24.24 1.65 o
2 19 10 22.75 22.82 2.38 o
2 19 11 14.38 13.44 3.82 o
2 19 12 54.78 47.46 2.79 o
2 19 13 63.38 65.13 3.80 o
2 19 16 18.78 14.64 4.64 o
2 19 17 10.20 8.10 2.09 o
2 20 0 66.76 68.26 2.69 o
2 20 1 11.72 12.61 1.31 o
2 20 2 12.51 12.34 1.81 o
2 20 3 268.83 266.52 9.52 o
2 20 4 409.77 413.99 12.79 o
2 20 5 79.14 82.47 3.86 o
2 20 7 117.83 116.53 5.02 o
2 20 8 25.21 27.04 1.86 o
2 20 11 626.36 645.68 20.94 o
2 20 12 79.32 86.50 5.67 o
2 20 15 14.54 14.60 2.79 o
2 20 16 53.90 60.41 5.63 o
2 20 17 25.23 23.89 2.39 o
2 21 0 167.87 170.23 5.09 o
2 21 1 19.56 17.61 2.35 o
2 21 2 197.59 196.77 8.22 o
2 21 3 15.14 14.18 1.63 o
2 21 4 17.92 16.48 1.75 o
2 21 6 82.89 86.72 3.98 o
2 21 7 16.11 15.75 3.46 o
2 21 8 148.94 155.87 5.70 o
2 21 9 16.35 15.28 1.55 o
2 21 10 5.47 7.76 2.32 o
2 21 12 54.47 57.39 3.40 o
2 21 13 6.59 5.92 1.46 o
2 21 14 61.78 63.62 5.58 o
2 21 18 28.22 28.56 4.19 o
2 22 0 7.95 6.95 1.25 o
2 22 1 211.32 211.87 6.19 o
2 22 3 86.02 87.28 5.44 o
2 22 5 381.44 366.47 11.44 o
2 22 6 145.84 139.33 5.23 o
2 22 7 110.81 115.08 4.73 o
2 22 8 129.84 124.64 7.14 o
2 22 9 75.10 70.61 4.76 o
2 22 10 7.80 6.27 1.83 o
2 22 11 12.72 11.89 3.64 o
2 22 13 59.24 56.70 5.08 o
2 22 15 64.60 63.67 3.46 o
2 22 16 14.90 14.93 2.03 o
2 22 17 48.55 53.67 5.00 o
2 23 1 468.84 462.08 13.15 o
2 23 2 350.72 350.54 10.05 o
2 23 3 53.00 51.53 3.48 o
2 23 5 53.76 55.53 3.26 o
2 23 6 95.43 88.86 4.04 o
2 23 7 50.93 50.21 3.28 o
2 23 8 11.04 14.87 1.96 o
2 23 9 25.85 23.91 2.25 o
2 23 11 9.29 9.21 1.49 o
2 23 12 5.07 5.43 1.49 o
2 23 13 18.47 19.15 1.75 o
2 23 14 55.62 53.60 5.00 o
2 23 15 31.57 32.67 2.92 o
2 24 0 46.17 48.15 4.63 o
2 24 1 131.39 129.18 5.72 o
2 24 4 393.87 399.80 11.74 o
2 24 5 8.46 7.28 1.76 o
2 24 7 248.11 251.50 8.55 o
2 24 8 17.10 16.10 3.88 o
2 24 9 109.79 111.93 4.96 o
2 24 10 111.67 116.91 6.83 o
2 24 11 64.61 66.11 4.09 o
2 24 12 61.78 65.20 3.01 o
2 24 15 6.86 10.00 1.90 o
2 24 16 18.98 16.59 2.10 o
2 25 0 158.31 156.09 5.93 o
2 25 3 157.63 158.99 5.18 o
2 25 7 102.23 91.32 4.41 o
2 25 8 37.84 41.02 3.56 o
2 25 9 50.37 48.96 7.59 o
2 25 10 23.86 21.14 2.02 o
2 25 11 9.26 10.22 1.83 o
2 25 13 68.13 68.56 3.59 o
2 25 14 18.29 19.82 2.03 o
2 25 15 15.93 13.66 1.98 o
2 25 16 9.29 10.97 2.47 o
2 26 0 107.13 105.51 4.70 o
2 26 1 19.91 16.12 5.09 o
2 26 4 61.53 57.34 3.06 o
2 26 6 12.63 12.64 2.62 o
2 26 7 17.89 18.82 3.91 o
2 26 9 5.63 7.53 2.10 o
2 26 10 87.63 92.98 6.41 o
2 26 13 15.68 15.21 2.73 o
2 26 14 11.68 12.15 1.67 o
2 26 15 39.43 40.57 6.48 o
2 27 0 119.65 116.64 6.82 o
2 27 1 86.19 83.11 4.61 o
2 27 2 8.25 6.88 2.06 o
2 27 3 32.38 29.67 5.27 o
2 27 4 13.95 14.21 1.66 o
2 27 7 54.85 51.20 3.16 o
2 27 8 86.40 88.89 5.02 o
2 27 9 33.91 36.42 2.99 o
2 27 10 13.76 13.92 2.26 o
2 27 11 65.05 63.40 3.47 o
2 27 14 64.88 68.51 4.52 o
2 28 0 59.84 52.74 5.33 o
2 28 2 39.65 38.10 5.30 o
2 28 3 73.74 74.73 4.23 o
2 28 4 30.39 28.99 2.56 o
2 28 5 64.93 64.56 3.26 o
2 28 6 47.98 47.23 3.81 o
2 28 7 26.90 27.93 5.12 o
2 28 8 12.27 13.56 1.84 o
2 28 9 44.76 43.79 3.03 o
2 28 11 40.55 40.00 2.69 o
2 28 12 58.35 59.05 3.01 o
2 29 0 84.20 80.37 5.88 o
2 29 1 32.45 34.84 5.17 o
2 29 2 107.03 107.89 6.76 o
2 29 3 14.05 13.92 3.69 o
2 29 5 53.46 52.76 3.84 o
2 29 6 25.93 22.60 5.72 o
2 29 7 53.13 54.55 3.18 o
2 29 8 43.75 44.08 2.96 o
2 29 9 9.74 7.49 1.81 o
2 29 11 6.17 5.29 1.64 o
2 29 12 18.58 16.66 1.81 o
2 29 13 19.63 22.10 3.30 o
2 30 1 9.80 13.04 3.70 o
2 30 5 85.00 81.09 4.51 o
2 30 9 36.03 37.63 2.81 o
2 30 11 26.90 31.77 2.28 o
2 31 1 39.46 30.75 4.76 o
2 31 2 117.46 120.54 7.11 o
2 31 3 19.03 13.16 3.63 o
2 31 5 59.33 74.58 5.77 o
2 31 6 32.32 25.67 4.51 o
2 31 7 30.02 38.29 4.85 o
2 31 9 94.66 89.75 5.97 o
2 31 10 39.36 38.62 4.09 o
2 32 2 27.09 30.03 4.58 o
2 32 3 48.31 38.97 4.95 o
2 32 4 32.38 31.53 4.75 o
2 32 5 29.00 22.29 3.75 o
2 32 6 16.49 11.12 3.45 o
2 33 6 18.22 21.69 3.66 o
2 33 7 136.23 131.68 7.29 o
2 33 8 14.13 17.31 3.53 o
3 0 0 338.41 325.59 9.32 o
3 0 2 1687.18 1621.08 42.73 o
3 0 4 107.10 108.83 5.06 o
3 0 6 4138.07 4109.59 181.19 o
3 0 8 24.16 23.04 2.55 o
3 0 12 65.20 72.16 15.84 o
3 1 0 1165.93 1149.70 29.78 o
3 1 1 70.14 66.20 2.43 o
3 1 3 417.57 392.68 11.37 o
3 1 4 328.34 325.94 8.73 o
3 1 5 1106.72 1072.98 30.50 o
3 1 6 327.90 330.59 9.23 o
3 1 7 42.40 46.29 2.68 o
3 1 8 13.35 14.14 1.65 o
3 1 9 452.18 459.01 14.61 o
3 1 11 142.80 145.84 6.20 o
3 1 12 8.96 8.44 2.33 o
3 2 0 614.96 602.50 15.59 o
3 2 1 279.31 272.19 7.28 o
3 2 2 88.40 82.57 2.88 o
3 2 3 23.40 21.05 1.50 o
3 2 4 116.13 110.60 3.43 o
3 2 5 18.84 19.51 1.57 o
3 2 6 69.91 75.34 3.01 o
3 2 7 465.54 461.65 12.99 o
3 2 8 188.36 188.02 5.98 o
3 2 10 28.20 29.91 2.19 o
3 2 11 118.40 129.46 4.83 o
3 2 12 260.27 278.78 14.57 o
3 3 0 99.63 98.48 3.19 o
3 3 1 13.62 13.64 1.21 o
3 3 2 313.54 301.27 7.91 o
3 3 3 19.65 17.72 1.40 o
3 3 4 612.15 595.46 15.54 o
3 3 5 43.32 43.78 2.16 o
3 3 6 233.95 231.13 6.67 o
3 3 7 59.27 61.11 2.76 o
3 3 8 219.14 224.06 7.36 o
3 3 9 18.43 21.23 2.39 o
3 3 10 324.49 328.77 11.06 o
3 3 11 50.31 49.33 2.58 o
3 3 12 48.04 51.30 3.80 o
3 3 13 29.37 25.24 4.20 o
3 4 1 873.10 841.02 21.81 o
3 4 2 135.37 134.35 3.97 o
3 4 3 359.11 351.87 9.36 o
3 4 4 33.82 32.34 2.14 o
3 4 5 664.02 666.46 17.98 o
3 4 7 685.96 669.89 23.85 o
3 4 8 116.45 117.97 4.43 o
3 4 9 337.09 336.08 13.85 o
3 4 10 135.38 141.81 4.78 o
3 4 11 194.79 193.70 6.36 o
3 4 12 7.91 7.01 1.54 o
3 4 13 379.80 383.24 12.48 o
3 5 0 273.26 273.69 7.28 o
3 5 1 43.24 44.20 2.19 o
3 5 2 709.37 700.94 18.20 o
3 5 3 322.65 316.04 8.60 o
3 5 4 726.30 700.76 18.75 o
3 5 5 23.50 23.94 1.64 o
3 5 6 72.26 70.36 3.25 o
3 5 8 180.72 180.76 7.16 o
3 5 10 285.32 290.92 8.85 o
3 5 11 19.45 19.65 1.86 o
3 5 12 62.93 63.91 2.96 o
3 5 13 36.14 37.71 2.51 o
3 5 14 88.19 82.24 5.03 o
3 6 0 220.30 215.32 5.77 o
3 6 1 487.23 464.84 12.32 o
3 6 2 742.68 735.68 19.52 o
3 6 4 211.34 209.49 5.80 o
3 6 6 17.86 15.83 1.60 o
3 6 7 171.13 167.98 6.86 o
3 6 8 66.74 66.75 4.22 o
3 6 10 31.63 33.01 2.04 o
3 6 11 21.14 21.89 1.77 o
3 6 12 18.51 21.77 1.80 o
3 6 13 133.40 138.01 19.66 o
3 6 14 27.13 24.80 4.15 o
3 7 1 11.35 11.74 1.23 o
3 7 2 60.57 60.91 2.51 o
3 7 3 1292.50 1298.18 32.90 o
3 7 4 45.50 45.25 2.06 o
3 7 5 188.43 185.27 5.55 o
3 7 7 40.74 41.17 2.92 o
3 7 8 6.97 7.30 1.84 o
3 7 9 738.13 754.43 24.56 o
3 7 10 110.69 113.19 5.20 o
3 7 11 74.45 76.04 3.54 o
3 7 12 7.00 7.36 2.31 o
3 7 13 12.00 12.73 2.52 o
3 7 14 155.52 143.17 5.30 o
3 8 0 596.87 598.28 17.33 o
3 8 1 50.26 51.33 2.26 o
3 8 2 424.98 423.73 11.18 o
3 8 3 92.28 94.57 3.09 o
3 8 4 8.17 9.21 1.15 o
3 8 5 87.59 85.70 3.19 o
3 8 6 523.42 523.35 15.11 o
3 8 7 26.90 26.55 1.84 o
3 8 8 642.36 645.54 22.89 o
3 8 12 264.29 269.54 9.13 o
3 8 14 128.80 124.67 6.90 o
3 8 15 29.47 23.53 2.03 o
3 9 0 8.84 9.23 1.15 o
3 9 1 71.94 70.84 2.59 o
3 9 2 5.15 5.23 1.17 o
3 9 3 472.03 468.67 12.71 o
3 9 4 6.47 6.10 1.19 o
3 9 5 244.31 241.58 7.25 o
3 9 6 160.51 156.24 5.06 o
3 9 8 264.48 262.62 9.37 o
3 9 9 202.49 202.92 6.53 o
3 9 10 8.41 11.39 1.68 o
3 9 11 214.78 227.53 7.37 o
3 9 12 90.00 92.01 5.23 o
3 9 13 7.83 5.95 1.58 o
3 9 14 333.56 322.92 25.92 o
3 9 15 241.46 227.27 12.14 o
3 9 16 38.51 30.12 4.78 o
3 10 0 296.44 289.09 8.10 o
3 10 1 27.00 27.52 1.71 o
3 10 2 258.28 255.69 7.12 o
3 10 3 17.22 17.21 1.37 o
3 10 4 10.18 10.62 1.36 o
3 10 5 22.62 20.61 1.68 o
3 10 6 298.41 298.83 8.88 o
3 10 7 253.25 256.29 10.84 o
3 10 8 19.69 18.49 2.09 o
3 10 10 9.58 8.81 1.64 o
3 10 11 50.05 57.62 3.71 o
3 10 12 75.79 79.46 7.08 o
3 10 13 17.85 16.79 1.78 o
3 10 14 22.16 22.33 2.77 o
3 11 0 63.23 65.76 2.62 o
3 11 1 162.16 165.85 5.16 o
3 11 2 53.06 53.61 2.51 o
3 11 3 73.04 73.12 2.89 o
3 11 4 901.68 904.47 26.99 o
3 11 5 489.83 484.31 14.69 o
3 11 6 210.19 202.91 6.32 o
3 11 7 412.27 410.71 13.19 o
3 11 8 609.92 610.17 18.42 o
3 11 9 5.55 6.18 1.45 o
3 11 10 74.76 87.70 5.93 o
3 11 11 10.66 12.03 3.63 o
3 11 14 36.03 34.69 5.60 o
3 11 16 120.54 105.04 6.14 o
3 12 0 59.85 62.26 2.77 o
3 12 1 1126.61 1129.07 32.33 o
3 12 2 28.46 25.67 1.79 o
3 12 3 346.23 352.62 10.23 o
3 12 4 121.75 123.02 4.21 o
3 12 5 1000.42 991.83 29.76 o
3 12 6 83.03 88.70 3.67 o
3 12 7 255.57 261.99 8.30 o
3 12 8 123.02 119.71 5.52 o
3 12 9 51.45 51.76 2.80 o
3 12 10 24.90 27.93 4.43 o
3 12 11 18.16 15.33 1.77 o
3 12 12 16.73 13.57 4.05 o
3 12 13 159.37 165.85 21.57 o
3 12 15 65.05 65.33 3.51 o
3 12 16 5.76 7.92 1.82 o
3 13 0 74.48 74.49 3.55 o
3 13 1 98.82 101.74 3.75 o
3 13 2 400.56 408.35 11.60 o
3 13 3 64.93 64.85 2.87 o
3 13 4 85.50 85.88 3.39 o
3 13 5 141.48 140.68 5.57 o
3 13 6 147.66 150.41 5.27 o
3 13 7 164.55 160.59 6.01 o
3 13 8 20.82 22.57 1.92 o
3 13 9 12.25 11.24 2.14 o
3 13 10 430.42 443.95 20.51 o
3 13 11 60.89 66.44 9.23 o
3 13 12 12.95 11.79 1.78 o
3 13 14 35.03 32.46 2.96 o
3 13 16 147.14 137.31 28.22 o
3 14 0 23.46 24.26 1.66 o
3 14 1 329.68 324.72 9.97 o
3 14 4 168.21 175.53 6.68 o
3 14 6 202.89 200.66 6.99 o
3 14 7 122.16 119.83 3.82 o
3 14 8 22.71 20.92 1.87 o
3 14 9 33.20 32.28 4.05 o
3 14 10 33.92 33.62 2.49 o
3 14 11 50.19 51.09 4.48 o
3 14 13 98.42 95.90 4.36 o
3 15 0 31.95 31.71 1.94 o
3 15 1 24.11 20.66 1.97 o
3 15 3 317.53 321.15 14.02 o
3 15 4 245.20 245.54 7.93 o
3 15 5 175.68 175.55 5.49 o
3 15 6 5.16 5.36 1.33 o
3 15 7 8.27 8.10 1.53 o
3 15 8 28.74 29.06 1.86 o
3 15 9 32.07 37.09 4.80 o
3 15 10 83.43 86.63 4.01 o
3 15 11 307.07 309.77 45.30 o
3 15 14 73.33 69.11 8.14 o
3 15 15 64.40 57.42 17.18 o
3 15 16 18.68 12.52 2.04 o
3 16 0 675.67 675.00 18.18 o
3 16 1 170.44 171.90 5.06 o
3 16 2 109.51 107.41 3.97 o
3 16 3 46.23 44.88 2.32 o
3 16 5 129.91 126.67 5.15 o
3 16 6 291.19 292.40 8.62 o
3 16 7 52.17 53.07 2.44 o
3 16 8 243.34 243.02 6.91 o
3 16 10 6.34 9.30 1.75 o
3 16 12 223.26 225.66 17.83 o
3 16 13 17.65 12.91 2.01 o
3 16 14 26.05 26.45 3.81 o
3 17 0 49.46 50.68 2.15 o
3 17 1 6.56 5.95 1.38 o
3 17 2 38.20 41.46 3.03 o
3 17 3 622.65 622.47 18.89 o
3 17 5 22.73 20.85 2.46 o
3 17 6 26.59 25.99 2.05 o
3 17 7 4.63 6.78 1.40 o
3 17 8 14.81 16.20 1.93 o
3 17 9 193.34 194.19 6.05 o
3 17 11 32.52 32.80 3.24 o
3 17 12 34.62 35.58 3.08 o
3 17 15 88.46 85.35 4.43 o
3 17 16 16.78 16.54 2.47 o
3 18 0 93.74 88.02 3.44 o
3 18 1 301.02 302.13 10.20 o
3 18 2 267.11 274.17 9.82 o
3 18 4 32.98 31.53 2.04 o
3 18 5 38.76 37.91 2.27 o
3 18 7 30.05 28.50 2.68 o
3 18 8 213.41 215.99 6.14 o
3 18 10 36.88 36.49 2.84 o
3 18 11 10.25 11.58 1.60 o
3 18 12 70.88 72.60 4.00 o
3 18 14 10.71 10.42 2.14 o
3 18 16 15.81 13.42 2.14 o
3 19 0 80.11 81.06 3.68 o
3 19 1 76.83 79.60 3.68 o
3 19 2 66.27 71.37 3.47 o
3 19 3 37.05 38.71 3.08 o
3 19 4 46.85 51.65 3.10 o
3 19 5 123.72 121.54 5.75 o
3 19 6 168.99 158.74 7.66 o
3 19 8 68.40 72.93 5.79 o
3 19 9 60.87 62.87 3.31 o
3 19 10 149.13 148.85 4.63 o
3 19 11 23.80 24.13 3.74 o
3 19 12 11.39 11.60 2.35 o
3 19 14 13.12 10.13 2.14 o
3 20 0 31.50 30.47 2.66 o
3 20 1 168.09 167.41 7.91 o
3 20 2 43.66 45.54 3.54 o
3 20 3 24.88 24.34 1.84 o
3 20 4 14.49 13.81 4.55 o
3 20 5 176.27 173.47 15.57 o
3 20 6 227.05 228.39 7.46 o
3 20 7 29.97 29.28 2.45 o
3 20 8 7.18 9.02 1.55 o
3 20 9 151.98 155.84 5.25 o
3 20 10 10.29 8.24 1.33 o
3 20 13 398.55 399.91 38.01 o
3 20 14 43.42 41.01 3.99 o
3 21 0 84.72 83.11 5.40 o
3 21 1 51.88 47.18 4.94 o
3 21 2 70.93 71.49 3.21 o
3 21 3 13.24 11.05 1.46 o
3 21 4 185.97 180.09 5.81 o
3 21 5 35.11 37.84 2.99 o
3 21 6 25.71 28.38 4.49 o
3 21 8 54.47 58.22 3.05 o
3 21 10 66.57 69.75 5.68 o
3 21 12 16.52 15.78 1.85 o
3 21 14 24.22 21.62 4.29 o
3 21 16 44.10 49.23 5.36 o
3 22 1 109.60 106.46 3.91 o
3 22 3 174.63 179.08 7.38 o
3 22 4 8.24 4.66 1.49 o
3 22 5 30.21 32.36 3.50 o
3 22 7 305.57 311.29 10.20 o
3 22 8 117.31 111.91 7.58 o
3 22 9 67.64 68.39 5.15 o
3 22 10 112.44 113.67 6.90 o
3 22 11 39.37 37.39 2.88 o
3 22 12 13.02 12.68 1.82 o
3 22 13 10.15 9.00 1.85 o
3 22 15 53.65 60.64 6.05 o
3 23 0 98.76 96.75 3.68 o
3 23 1 16.78 17.93 1.56 o
3 23 3 410.34 422.74 12.55 o
3 23 4 238.33 235.25 7.31 o
3 23 5 40.00 40.09 4.97 o
3 23 7 35.73 33.15 3.12 o
3 23 8 27.61 26.94 4.49 o
3 23 9 11.10 13.38 1.79 o
3 23 10 22.03 20.98 2.24 o
3 23 11 25.96 27.08 2.21 o
3 23 13 16.49 15.02 1.95 o
3 23 15 15.72 15.26 2.57 o
3 23 16 28.75 28.99 6.51 o
3 24 0 127.42 126.38 6.38 o
3 24 1 98.39 98.22 3.75 o
3 24 2 78.06 74.88 5.73 o
3 24 3 41.05 42.60 3.84 o
3 24 6 250.71 260.40 8.27 o
3 24 7 13.86 13.06 1.81 o
3 24 9 146.25 147.35 5.31 o
3 24 10 24.65 26.34 3.71 o
3 24 11 48.51 48.89 3.19 o
3 24 12 62.08 64.54 6.66 o
3 24 13 39.58 43.70 4.23 o
3 24 14 37.98 42.18 4.16 o
3 25 1 70.85 71.56 8.50 o
3 25 2 163.21 159.13 5.76 o
3 25 4 6.04 7.98 1.62 o
3 25 5 167.36 167.98 5.76 o
3 25 9 84.18 85.81 6.18 o
3 25 10 25.12 24.42 2.24 o
3 25 11 32.23 36.72 3.12 o
3 25 12 21.99 21.98 2.70 o
3 25 15 33.16 34.87 3.97 o
3 26 0 78.89 77.19 4.36 o
3 26 1 34.87 37.94 6.05 o
3 26 2 84.30 88.10 6.08 o
3 26 3 11.31 13.36 1.70 o
3 26 6 35.17 38.51 2.68 o
3 26 8 12.16 14.21 2.22 o
3 26 9 10.10 10.54 1.90 o
3 26 12 66.95 75.39 4.14 o
3 27 2 101.37 105.81 5.17 o
3 27 3 75.61 79.48 5.63 o
3 27 5 32.87 33.59 2.52 o
3 27 6 20.70 19.37 3.14 o
3 27 9 31.81 29.83 3.16 o
3 27 10 63.35 69.02 3.37 o
3 27 11 22.63 24.28 2.56 o
3 27 12 9.12 9.49 2.05 o
3 27 13 29.70 29.59 3.28 o
3 28 0 90.45 92.87 6.48 o
3 28 1 114.25 110.90 5.25 o
3 28 2 46.79 45.52 4.60 o
3 28 3 7.68 8.01 2.29 o
3 28 4 32.39 31.10 6.28 o
3 28 5 54.45 56.28 3.73 o
3 28 7 39.14 39.34 2.98 o
3 28 8 45.55 43.51 3.11 o
3 28 9 29.28 30.59 4.16 o
3 28 11 23.98 25.16 2.59 o
3 28 13 18.74 20.78 2.87 o
3 29 0 155.62 150.76 8.13 o
3 29 1 15.28 15.55 3.68 o
3 29 2 59.90 57.88 9.19 o
3 29 3 18.06 19.96 2.50 o
3 29 4 81.54 80.52 5.75 o
3 29 7 37.38 40.54 2.85 o
3 29 9 35.80 36.02 2.88 o
3 29 10 27.31 29.21 2.23 o
3 30 0 65.37 65.44 5.55 o
3 30 3 20.59 20.02 3.78 o
3 30 7 92.13 89.99 8.89 o
3 31 3 30.44 27.57 4.86 o
3 31 4 82.35 84.40 4.64 o
3 31 7 39.31 38.33 3.58 o
3 31 8 9.25 7.32 2.43 o
3 31 9 16.90 14.62 2.78 o
3 32 4 22.98 23.45 3.60 o
3 32 5 41.32 38.03 5.48 o
3 32 7 20.10 22.81 4.57 o
3 33 4 13.04 14.20 4.63 o
3 33 5 75.00 68.63 7.54 o
3 34 2 81.70 78.35 8.10 o
4 0 0 23.11 22.51 1.75 o
4 0 2 351.39 337.78 10.09 o
4 0 4 1027.44 948.07 34.29 o
4 0 6 60.06 57.53 3.68 o
4 0 8 1596.07 1585.38 53.82 o
4 0 10 53.46 53.89 6.93 o
4 1 0 21.54 22.92 1.36 o
4 1 1 323.78 309.54 9.07 o
4 1 2 676.95 654.82 18.37 o
4 1 4 8.34 7.81 1.57 o
4 1 5 176.24 169.03 5.36 o
4 1 6 228.93 226.55 7.09 o
4 1 7 796.95 766.95 23.69 o
4 1 8 225.83 215.49 7.87 o
4 1 9 17.46 16.86 1.78 o
4 1 10 19.58 22.50 2.11 o
4 1 11 191.16 189.81 7.36 o
4 2 0 150.32 145.90 4.23 o
4 2 2 371.66 351.37 9.60 o
4 2 3 139.82 128.46 4.01 o
4 2 4 82.46 79.15 3.20 o
4 2 5 42.91 43.29 2.48 o
4 2 6 24.33 22.78 1.78 o
4 2 7 11.84 13.36 1.72 o
4 2 8 13.44 12.95 1.80 o
4 2 9 310.78 309.98 10.17 o
4 2 10 100.80 105.17 4.33 o
4 2 12 32.10 33.44 7.45 o
4 3 0 341.92 325.48 8.63 o
4 3 1 137.26 127.88 4.17 o
4 3 2 118.59 113.25 3.69 o
4 3 3 5.31 6.10 1.22 o
4 3 4 143.08 135.43 4.54 o
4 3 5 39.21 34.49 2.16 o
4 3 6 290.94 284.00 8.42 o
4 3 7 48.05 48.02 2.52 o
4 3 8 241.92 237.99 7.24 o
4 3 9 77.92 79.60 4.22 o
4 3 10 67.66 66.61 3.23 o
4 3 11 16.68 19.66 2.09 o
4 3 12 229.11 221.51 11.43 o
4 4 0 3.91 3.92 1.12 o
4 4 1 307.11 290.38 8.06 o
4 4 3 462.69 441.44 12.55 o
4 4 4 62.60 58.07 2.60 o
4 4 5 449.39 431.07 13.67 o
4 4 6 8.87 8.72 1.51 o
4 4 7 296.01 288.51 8.61 o
4 4 9 355.05 355.61 10.97 o
4 4 10 60.02 65.36 3.35 o
4 4 11 228.24 236.15 8.86 o
4 4 12 76.90 78.16 3.80 o
4 5 0 1409.11 1381.27 36.82 o
4 5 1 3.83 3.96 1.21 o
4 5 2 257.19 246.35 6.92 o
4 5 3 6.45 6.11 1.20 o
4 5 4 361.29 355.76 10.70 o
4 5 5 107.09 105.58 4.51 o
4 5 6 400.84 387.10 11.28 o
4 5 7 9.45 9.24 1.69 o
4 5 8 66.24 66.17 3.19 o
4 5 10 55.04 61.89 3.53 o
4 5 12 129.57 139.30 5.21 o
4 5 13 7.53 8.34 2.24 o
4 6 0 555.22 538.54 15.02 o
4 6 1 180.00 174.10 5.25 o
4 6 2 241.55 237.28 6.70 o
4 6 3 394.05 371.26 10.32 o
4 6 4 379.31 379.97 11.23 o
4 6 6 92.01 89.69 3.46 o
4 6 8 5.12 8.61 1.67 o
4 6 9 95.91 95.27 3.85 o
4 6 10 40.91 41.60 4.09 o
4 7 0 61.93 57.09 2.55 o
4 7 1 265.43 256.69 8.26 o
4 7 3 44.91 43.44 2.35 o
4 7 4 77.11 77.14 3.01 o
4 7 5 611.01 591.14 20.16 o
4 7 6 79.61 77.95 3.43 o
4 7 7 178.63 179.12 6.16 o
4 7 9 32.91 33.08 3.47 o
4 7 11 341.89 349.21 12.20 o
4 7 12 57.80 57.25 4.45 o
4 7 13 36.24 34.41 4.00 o
4 8 0 293.40 285.33 8.14 o
4 8 1 86.51 79.19 3.11 o
4 8 2 349.70 343.70 9.79 o
4 8 3 30.55 27.67 1.77 o
4 8 4 378.75 370.64 10.78 o
4 8 5 52.79 53.59 2.71 o
4 8 7 29.58 29.03 2.09 o
4 8 8 176.61 175.16 6.22 o
4 8 9 16.97 15.90 1.95 o
4 8 10 509.20 510.84 16.74 o
4 8 14 142.70 137.26 5.20 o
4 9 0 83.46 81.30 3.31 o
4 9 1 566.89 550.44 16.18 o
4 9 2 11.44 11.09 1.43 o
4 9 3 19.73 18.67 1.57 o
4 9 5 239.12 234.74 7.74 o
4 9 7 174.97 168.17 5.46 o
4 9 8 118.91 117.14 5.76 o
4 9 9 8.10 9.45 2.08 o
4 9 10 189.99 193.90 6.79 o
4 9 11 86.97 91.52 5.37 o
4 9 12 12.65 16.16 3.05 o
4 9 13 134.18 132.07 5.88 o
4 9 14 51.88 47.22 4.20 o
4 10 0 126.09 121.33 4.31 o
4 10 1 56.29 54.24 2.75 o
4 10 2 116.51 111.40 5.49 o
4 10 4 230.22 221.18 7.00 o
4 10 5 32.94 32.87 2.17 o
4 10 6 31.88 33.34 3.00 o
4 10 7 29.10 27.11 2.11 o
4 10 8 275.53 265.03 8.26 o
4 10 9 194.33 195.55 8.05 o
4 10 13 18.57 20.09 3.16 o
4 10 14 11.97 12.03 2.97 o
4 10 15 10.92 9.84 2.62 o
4 11 0 174.76 172.49 5.73 o
4 11 1 152.18 150.99 4.90 o
4 11 2 75.48 74.07 3.28 o
4 11 3 106.90 104.97 3.75 o
4 11 4 15.48 14.07 1.75 o
4 11 5 60.91 57.85 3.32 o
4 11 6 503.60 504.27 14.55 o
4 11 7 207.77 210.77 6.98 o
4 11 8 193.57 197.77 9.81 o
4 11 9 143.07 143.54 8.27 o
4 11 10 293.14 303.91 32.09 o
4 11 12 41.18 37.68 5.24 o
4 11 13 16.44 19.70 3.27 o
4 12 0 56.67 54.70 2.66 o
4 12 2 24.34 21.04 1.99 o
4 12 3 872.08 842.62 25.89 o
4 12 4 20.15 21.64 1.72 o
4 12 5 285.52 281.87 9.26 o
4 12 6 125.81 126.15 4.16 o
4 12 7 542.35 531.30 16.13 o
4 12 8 51.81 50.29 2.79 o
4 12 9 98.99 100.94 14.29 o
4 12 10 91.66 91.22 13.94 o
4 12 11 62.60 63.93 11.49 o
4 12 12 17.18 19.34 1.95 o
4 12 15 75.12 74.03 4.67 o
4 13 0 353.91 345.39 9.20 o
4 13 1 6.96 5.72 1.10 o
4 13 2 98.33 92.22 3.32 o
4 13 3 71.03 68.86 3.22 o
4 13 4 139.49 132.38 4.66 o
4 13 5 23.91 24.42 1.51 o
4 13 6 94.65 96.12 3.22 o
4 13 7 54.33 52.75 2.89 o
4 13 8 122.99 121.02 4.82 o
4 13 9 82.19 80.87 8.56 o
4 13 10 13.86 13.57 1.82 o
4 13 11 4.20 7.69 1.74 o
4 13 12 171.99 161.90 12.38 o
4 13 13 34.19 34.22 5.43 o
4 13 14 20.10 17.83 3.44 o
4 14 1 62.69 59.23 2.21 o
4 14 2 8.25 7.04 1.16 o
4 14 3 250.33 246.97 7.08 o
4 14 6 185.46 189.78 7.30 o
4 14 7 23.53 23.42 2.51 o
4 14 8 152.01 149.22 5.60 o
4 14 9 73.44 73.42 3.86 o
4 14 11 49.14 46.99 3.32 o
4 14 12 17.87 16.43 3.63 o
4 14 13 32.81 34.91 5.67 o
4 14 15 57.80 61.21 4.91 o
4 15 0 142.10 144.23 4.07 o
4 15 1 158.65 157.02 4.49 o
4 15 2 41.38 42.64 1.93 o
4 15 3 4.58 4.86 1.22 o
4 15 4 14.36 15.39 1.35 o
4 15 5 148.68 153.66 5.36 o
4 15 6 174.96 172.31 6.17 o
4 15 7 147.69 146.54 9.21 o
4 15 10 8.05 7.50 1.80 o
4 15 11 9.80 10.14 1.89 o
4 15 12 53.34 50.50 12.45 o
4 15 13 200.97 234.79 10.92 o
4 16 0 46.48 47.68 1.94 o
4 16 2 389.10 388.58 10.69 o
4 16 3 103.36 104.07 3.90 o
4 16 4 151.95 152.26 5.24 o
4 16 5 49.68 52.26 2.99 o
4 16 7 78.16 83.44 7.92 o
4 16 8 140.28 148.36 15.10 o
4 16 9 28.91 26.98 1.98 o
4 16 10 157.39 158.44 20.67 o
4 16 14 91.52 113.09 7.00 o
4 16 16 13.75 12.87 2.82 o
4 17 0 90.66 92.37 3.52 o
4 17 1 861.67 851.00 24.48 o
4 17 2 39.17 39.56 2.60 o
4 17 3 9.41 9.21 1.59 o
4 17 4 36.73 30.85 4.60 o
4 17 5 371.73 370.09 13.17 o
4 17 7 6.67 6.81 1.72 o
4 17 8 27.21 28.53 2.36 o
4 17 9 19.70 21.80 2.23 o
4 17 11 87.23 87.68 12.27 o
4 17 13 28.59 31.16 4.02 o
4 17 14 20.66 16.73 3.62 o
4 18 0 28.15 26.63 2.03 o
4 18 1 34.64 33.01 1.92 o
4 18 2 24.80 24.64 2.60 o
4 18 3 197.13 205.15 6.32 o
4 18 4 202.74 200.92 6.27 o
4 18 7 11.44 12.95 1.52 o
4 18 9 16.59 15.68 2.16 o
4 18 10 115.13 115.92 9.15 o
4 18 12 14.49 13.35 3.96 o
4 18 14 26.19 25.11 3.72 o
4 19 0 506.99 492.40 15.11 o
4 19 1 12.49 14.23 2.44 o
4 19 2 34.35 31.23 2.01 o
4 19 3 105.64 107.59 4.11 o
4 19 4 26.78 26.52 1.79 o
4 19 5 19.67 17.33 2.83 o
4 19 6 33.38 34.06 2.52 o
4 19 7 80.65 84.50 4.53 o
4 19 8 142.10 143.40 6.04 o
4 19 10 34.32 28.66 8.38 o
4 19 11 45.03 43.51 3.98 o
4 19 12 80.06 82.10 13.19 o
4 19 13 17.10 21.78 3.97 o
4 20 1 231.45 220.33 6.71 o
4 20 2 44.42 45.69 4.24 o
4 20 3 147.05 146.26 5.01 o
4 20 4 21.86 22.68 1.75 o
4 20 5 27.92 26.03 2.28 o
4 20 6 13.57 15.79 2.74 o
4 20 7 85.15 82.74 3.50 o
4 20 8 102.64 94.98 12.18 o
4 20 9 10.01 11.07 2.18 o
4 20 10 11.35 11.22 2.28 o
4 20 11 142.81 141.34 14.14 o
4 20 15 210.65 228.13 10.59 o
4 20 16 18.59 20.96 3.17 o
4 21 0 133.22 125.12 15.88 o
4 21 1 34.91 39.73 4.63 o
4 21 2 77.26 74.68 3.41 o
4 21 3 21.50 20.50 1.73 o
4 21 4 15.03 14.40 1.65 o
4 21 5 9.80 10.60 1.63 o
4 21 6 152.39 149.62 5.08 o
4 21 7 49.81 51.45 4.96 o
4 21 8 25.32 26.16 3.11 o
4 21 10 33.72 32.72 5.87 o
4 21 12 20.69 19.91 2.57 o
4 21 14 22.92 24.47 2.73 o
4 21 15 12.76 16.28 3.44 o
4 22 0 6.93 7.38 1.77 o
4 22 1 10.45 8.72 1.52 o
4 22 3 73.99 74.15 3.53 o
4 22 5 125.62 130.42 4.89 o
4 22 6 17.54 16.69 3.57 o
4 22 7 7.82 8.02 1.62 o
4 22 9 197.60 220.55 10.93 o
4 22 10 70.67 64.86 4.58 o
4 22 11 34.91 36.51 4.00 o
4 22 12 72.34 73.04 4.85 o
4 22 13 16.43 15.84 2.60 o
4 22 14 12.61 11.55 2.57 o
4 23 1 78.05 73.57 4.09 o
4 23 2 103.23 102.88 4.13 o
4 23 3 20.39 20.39 1.80 o
4 23 5 285.15 280.77 8.93 o
4 23 6 124.06 122.25 4.62 o
4 23 7 29.91 29.02 2.03 o
4 23 9 20.66 20.74 2.17 o
4 23 10 3.84 6.08 2.02 o
4 23 12 28.96 33.37 5.19 o
4 23 13 18.04 21.89 2.73 o
4 23 15 18.36 18.26 2.23 o
4 24 0 24.09 21.18 2.26 o
4 24 1 22.82 24.20 2.18 o
4 24 2 75.94 78.28 3.56 o
4 24 3 50.77 45.75 3.47 o
4 24 4 92.86 94.46 4.13 o
4 24 8 134.18 134.13 10.12 o
4 24 9 14.33 13.98 2.08 o
4 24 11 70.53 72.66 4.12 o
4 24 12 23.49 23.22 2.33 o
4 24 13 14.59 18.11 2.24 o
4 24 14 28.60 31.73 5.42 o
4 24 15 22.65 24.37 3.00 o
4 25 0 90.36 96.94 7.08 o
4 25 1 95.53 93.64 5.83 o
4 25 3 38.90 37.51 2.59 o
4 25 4 135.68 132.61 5.01 o
4 25 5 11.47 12.66 2.05 o
4 25 6 9.61 9.39 1.74 o
4 25 7 141.76 149.11 5.29 o
4 25 10 6.77 7.18 2.05 o
4 25 11 52.68 58.88 3.83 o
4 25 12 16.36 16.76 2.23 o
4 25 13 21.38 26.53 2.65 o
4 25 14 15.20 13.40 3.37 o
4 26 0 82.63 87.95 6.76 o
4 26 2 53.13 53.29 6.22 o
4 26 3 15.26 15.61 2.24 o
4 26 4 46.79 43.35 3.44 o
4 26 8 17.58 19.09 2.07 o
4 26 10 11.52 10.07 2.54 o
4 27 0 75.91 78.37 5.52 o
4 27 1 36.06 33.11 5.77 o
4 27 3 26.06 24.04 4.26 o
4 27 4 76.81 78.82 3.67 o
4 27 5 62.85 65.49 3.42 o
4 27 7 24.73 24.09 1.99 o
4 27 8 20.79 21.84 2.12 o
4 27 11 14.96 14.83 2.44 o
4 27 12 41.87 44.75 4.26 o
4 28 1 21.03 17.74 4.04 o
4 28 2 106.15 114.84 7.76 o
4 28 3 108.69 105.26 6.36 o
4 28 4 30.16 33.16 3.79 o
4 28 5 10.65 12.61 2.39 o
4 28 6 23.11 23.22 1.94 o
4 28 7 35.93 35.48 3.61 o
4 28 9 18.19 16.52 2.54 o
4 28 10 38.59 42.52 3.41 o
4 28 11 26.05 26.59 2.61 o
4 29 0 40.27 40.11 5.31 o
4 29 2 112.71 113.30 6.52 o
4 29 4 31.13 33.21 3.33 o
4 29 6 50.41 49.09 5.40 o
4 29 9 20.96 21.37 4.08 o
4 30 0 34.57 32.65 3.97 o
4 30 1 38.65 45.52 4.86 o
4 30 2 77.31 78.22 5.60 o
4 30 5 28.77 28.38 3.56 o
4 30 9 74.86 81.53 7.58 o
4 31 0 75.81 77.59 11.28 o
4 31 3 12.67 13.83 2.87 o
4 31 5 21.83 17.98 2.87 o
4 31 6 46.22 44.50 4.28 o
4 32 0 15.60 14.24 3.11 o
4 32 3 61.09 58.93 4.81 o
4 32 4 73.53 73.84 8.26 o
5 0 0 282.32 269.94 8.93 o
5 0 4 243.08 233.09 9.71 o
5 0 6 569.00 539.46 18.36 o
5 0 8 42.58 39.43 2.91 o
5 0 10 546.37 557.15 35.01 o
5 1 1 248.39 226.65 6.67 o
5 1 2 13.05 11.75 1.51 o
5 1 3 186.65 167.29 5.94 o
5 1 4 401.24 382.23 13.60 o
5 1 5 23.96 23.59 1.74 o
5 1 6 7.01 6.76 1.45 o
5 1 7 67.01 65.19 2.86 o
5 1 8 127.32 129.51 4.41 o
5 1 9 525.74 530.71 16.56 o
5 1 10 136.65 143.00 6.45 o
5 2 0 339.03 320.10 8.80 o
5 2 1 58.97 54.88 2.68 o
5 2 2 102.27 97.45 3.63 o
5 2 4 177.10 168.18 6.01 o
5 2 5 82.25 78.54 3.39 o
5 2 6 46.11 48.10 2.42 o
5 2 7 48.46 48.31 2.48 o
5 3 0 126.88 125.23 4.02 o
5 3 1 85.66 75.27 3.22 o
5 3 2 303.30 282.75 8.13 o
5 3 3 127.39 118.66 5.33 o
5 3 4 80.59 74.09 3.37 o
5 3 6 44.29 45.43 2.40 o
5 3 7 38.59 34.82 2.88 o
5 3 8 99.13 88.90 4.08 o
5 3 9 58.72 59.82 3.24 o
5 3 10 211.23 231.06 9.75 o
5 3 11 81.81 87.52 4.17 o
5 4 1 0.77 3.86 1.24 o
5 4 2 4.89 4.47 1.25 o
5 4 3 60.87 57.02 2.73 o
5 4 5 238.32 231.45 6.78 o
5 4 6 43.55 42.09 2.03 o
5 4 7 390.52 390.90 11.42 o
5 4 9 121.77 126.10 5.19 o
5 4 11 168.54 172.18 6.14 o
5 4 12 26.33 25.43 3.56 o
5 5 0 178.61 167.51 6.59 o
5 5 1 110.87 100.38 3.88 o
5 5 2 1035.19 959.62 26.91 o
5 5 4 200.45 189.38 6.01 o
5 5 6 157.99 158.67 5.12 o
5 5 7 23.00 23.58 1.72 o
5 5 8 192.32 179.60 6.70 o
5 5 10 45.78 44.71 4.51 o
5 5 12 11.01 11.64 2.46 o
5 6 0 94.80 89.20 3.60 o
5 6 1 1387.86 1291.53 35.20 o
5 6 2 374.85 362.63 10.76 o
5 6 3 104.81 101.85 3.53 o
5 6 4 182.59 170.76 5.46 o
5 6 5 254.62 240.69 6.84 o
5 6 6 158.26 152.64 5.26 o
5 6 8 28.78 27.00 2.30 o
5 6 11 38.27 32.36 4.52 o
5 6 12 22.05 22.55 2.78 o
5 7 0 184.97 177.59 5.52 o
5 7 1 119.30 113.34 4.14 o
5 7 3 156.28 148.12 4.52 o
5 7 4 10.25 10.64 1.58 o
5 7 5 67.51 61.44 2.74 o
5 7 6 76.60 71.32 3.69 o
5 7 7 275.26 265.38 8.53 o
5 7 8 71.49 71.11 3.55 o
5 7 9 130.49 130.71 6.24 o
5 7 11 21.73 21.17 3.04 o
5 7 13 137.21 143.68 5.47 o
5 8 0 502.56 486.35 12.99 o
5 8 1 125.37 119.61 3.87 o
5 8 2 83.14 81.93 2.97 o
5 8 3 33.00 31.31 1.63 o
5 8 4 166.76 164.40 4.77 o
5 8 5 6.84 5.29 1.23 o
5 8 6 276.09 271.49 8.05 o
5 8 7 30.38 30.28 1.99 o
5 8 10 32.65 37.13 4.92 o
5 8 11 14.86 13.18 3.08 o
5 8 12 353.39 358.53 12.73 o
5 9 0 51.03 52.26 2.21 o
5 9 1 221.44 213.34 6.06 o
5 9 2 46.64 41.75 2.35 o
5 9 3 426.06 411.23 14.03 o
5 9 4 4.81 6.11 1.16 o
5 9 5 4.07 3.96 1.32 o
5 9 7 88.67 85.81 3.25 o
5 9 9 111.74 121.13 6.32 o
5 9 10 60.19 57.37 5.41 o
5 9 11 13.35 16.75 3.26 o
5 9 12 106.96 114.26 5.79 o
5 9 13 32.07 31.15 4.26 o
5 9 14 11.98 14.34 2.60 o
5 10 0 183.78 176.72 4.93 o
5 10 1 69.03 63.24 2.50 o
5 10 2 101.53 96.36 3.09 o
5 10 3 29.27 28.36 1.51 o
5 10 4 25.36 24.83 1.54 o
5 10 6 179.23 169.53 6.24 o
5 10 7 38.51 37.35 2.44 o
5 10 8 41.36 46.93 5.60 o
5 10 9 24.19 23.66 3.55 o
5 10 10 212.37 225.43 9.53 o
5 10 11 117.61 111.93 6.19 o
5 11 0 58.02 55.12 2.44 o
5 11 1 7.02 7.24 1.16 o
5 11 2 126.77 123.50 3.61 o
5 11 3 124.58 120.14 3.97 o
5 11 4 76.03 72.56 2.53 o
5 11 5 54.37 55.43 3.58 o
5 11 7 29.34 24.62 6.40 o
5 11 8 248.65 240.30 10.34 o
5 11 9 74.11 95.07 6.18 o
5 11 10 133.11 129.61 6.94 o
5 11 11 34.49 34.39 5.36 o
5 11 12 115.47 120.98 6.47 o
5 11 14 20.06 20.88 3.03 o
5 12 0 11.69 12.18 1.06 o
5 12 2 28.41 28.02 1.70 o
5 12 3 6.83 5.73 1.07 o
5 12 4 7.42 6.96 1.15 o
5 12 5 556.62 553.40 15.36 o
5 12 6 9.17 11.26 1.50 o
5 12 7 191.04 194.74 6.47 o
5 12 8 90.84 79.43 6.15 o
5 12 9 239.29 224.33 10.17 o
5 12 10 26.43 30.42 3.84 o
5 12 11 38.52 40.49 5.69 o
5 12 12 54.38 53.05 5.53 o
5 12 13 49.47 48.23 5.15 o
5 13 0 173.57 173.87 4.65 o
5 13 2 171.63 168.97 5.63 o
5 13 4 105.32 103.47 3.26 o
5 13 5 45.93 48.00 2.24 o
5 13 6 31.46 31.50 2.01 o
5 13 7 4.23 6.75 1.97 o
5 13 8 81.93 100.77 6.60 o
5 13 9 12.48 12.76 3.76 o
5 13 10 74.57 78.21 6.16 o
5 13 11 35.59 37.46 5.88 o
5 13 14 53.92 58.13 4.70 o
5 14 0 5.10 6.36 0.97 o
5 14 1 480.49 476.66 12.52 o
5 14 3 39.29 38.83 1.98 o
5 14 5 142.28 147.34 4.43 o
5 14 8 163.45 170.97 8.91 o
5 14 9 43.91 47.35 6.08 o
5 14 10 101.21 94.67 6.66 o
5 14 11 38.21 36.17 6.13 o
5 14 13 47.68 49.84 5.55 o
5 14 15 21.02 18.14 2.78 o
5 15 1 74.28 74.43 2.56 o
5 15 2 51.77 50.28 2.45 o
5 15 3 90.88 91.03 3.46 o
5 15 4 46.79 45.22 2.34 o
5 15 6 15.18 16.08 1.27 o
5 15 7 41.63 38.48 2.45 o
5 15 8 100.25 105.48 5.11 o
5 15 9 117.93 135.25 7.85 o
5 15 14 30.16 34.85 4.84 o
5 15 15 107.83 110.90 5.54 o
5 16 0 354.39 352.71 9.26 o
5 16 1 45.88 44.54 2.29 o
5 16 4 198.31 203.28 6.01 o
5 16 5 47.68 45.88 2.37 o
5 16 6 162.20 169.50 5.01 o
5 16 7 42.35 39.92 2.41 o
5 16 9 38.94 38.31 3.72 o
5 16 10 50.67 52.61 6.36 o
5 16 11 15.19 16.54 4.05 o
5 16 12 85.34 84.57 6.89 o
5 17 0 30.21 33.14 1.70 o
5 17 1 19.86 18.35 2.99 o
5 17 2 105.99 102.39 4.01 o
5 17 3 725.67 720.87 21.40 o
5 17 4 30.49 30.25 1.75 o
5 17 5 9.44 8.83 1.34 o
5 17 6 25.40 25.04 1.58 o
5 17 7 185.74 185.00 5.70 o
5 17 8 4.78 6.61 1.47 o
5 17 10 20.96 20.33 5.76 o
5 17 11 27.34 22.64 4.14 o
5 17 13 34.55 46.64 5.70 o
5 18 0 116.72 113.23 4.75 o
5 18 1 119.85 119.46 5.01 o
5 18 2 20.31 20.57 3.46 o
5 18 5 93.95 98.29 4.44 o
5 18 6 129.79 129.35 4.69 o
5 18 11 9.72 8.63 1.88 o
5 18 12 53.22 55.97 6.31 o
5 19 1 120.93 116.73 8.29 o
5 19 2 320.43 322.40 12.25 o
5 19 3 16.08 15.03 1.93 o
5 19 5 104.94 93.15 7.65 o
5 19 7 8.16 7.43 1.62 o
5 19 8 22.45 22.25 2.11 o
5 19 9 43.64 49.86 3.56 o
5 19 10 85.99 87.31 4.40 o
5 19 12 10.85 14.43 2.50 o
5 19 13 31.47 31.48 2.99 o
5 19 14 37.97 38.99 3.89 o
5 19 15 9.67 11.48 2.96 o
5 20 0 17.89 17.12 1.92 o
5 20 1 71.75 69.54 3.93 o
5 20 3 113.46 110.52 7.79 o
5 20 4 41.33 37.28 2.86 o
5 20 5 99.40 101.80 10.66 o
5 20 6 9.12 7.15 1.89 o
5 20 7 23.56 20.75 1.87 o
5 20 8 11.26 10.76 1.96 o
5 20 9 28.49 29.37 2.34 o
5 20 10 39.56 47.13 3.59 o
5 20 12 11.39 11.72 2.09 o
5 20 13 103.48 108.93 8.21 o
5 21 2 84.30 90.16 4.56 o
5 21 3 23.65 20.76 2.14 o
5 21 4 55.46 57.21 3.78 o
5 21 7 8.01 8.35 2.39 o
5 21 8 108.68 115.39 5.11 o
5 21 9 48.22 52.39 3.71 o
5 21 10 19.57 19.14 2.22 o
5 21 11 39.72 39.85 3.46 o
5 21 12 19.18 18.42 2.24 o
5 22 1 59.72 61.07 4.72 o
5 22 3 14.38 14.24 2.10 o
5 22 5 45.04 47.07 4.00 o
5 22 7 78.99 83.63 4.40 o
5 22 8 16.20 17.93 3.22 o
5 22 11 104.00 112.78 5.07 o
5 22 12 32.62 36.50 3.44 o
5 22 13 14.47 16.14 2.22 o
5 22 14 34.57 34.47 3.96 o
5 23 0 36.70 35.21 2.57 o
5 23 1 6.13 8.57 2.00 o
5 23 3 60.25 54.59 3.90 o
5 23 4 85.26 78.13 5.21 o
5 23 5 17.90 18.09 2.22 o
5 23 7 159.78 164.47 5.88 o
5 23 8 49.55 57.17 3.86 o
5 23 9 22.66 22.40 2.30 o
5 23 11 10.56 11.18 3.42 o
5 23 14 27.59 30.68 7.54 o
5 24 0 101.18 101.40 6.54 o
5 24 1 13.08 12.09 2.04 o
5 24 4 39.58 34.83 3.82 o
5 24 5 23.51 25.37 4.03 o
5 24 6 85.10 85.56 5.02 o
5 24 10 60.81 68.30 4.08 o
5 24 13 29.43 29.81 3.08 o
5 25 0 39.93 37.93 4.98 o
5 25 1 59.24 62.30 5.51 o
5 25 2 99.85 93.96 4.62 o
5 25 3 74.63 75.75 4.26 o
5 25 5 15.44 17.49 2.21 o
5 25 6 89.59 96.52 6.83 o
5 25 7 13.83 11.96 2.15 o
5 25 8 9.57 12.28 2.14 o
5 25 9 98.79 106.74 5.57 o
5 26 0 38.32 36.17 9.70 o
5 26 2 56.86 57.03 6.74 o
5 26 4 28.94 27.87 2.51 o
5 26 6 17.75 17.14 2.21 o
5 26 8 8.81 7.23 2.13 o
5 26 10 8.52 8.70 2.86 o
5 27 0 11.09 8.92 2.81 o
5 27 2 56.10 50.50 11.10 o
5 27 3 23.20 22.54 6.30 o
5 27 5 36.82 33.54 2.62 o
5 27 6 51.23 49.02 4.95 o
5 27 7 48.24 46.53 3.54 o
5 27 9 13.47 13.66 4.35 o
5 27 10 15.71 14.74 2.24 o
5 28 0 38.81 37.06 3.01 o
5 28 1 18.09 15.20 2.27 o
5 28 4 95.01 97.53 5.80 o
5 28 5 96.89 93.96 5.75 o
5 28 6 17.30 19.53 2.95 o
5 28 8 14.00 11.86 2.99 o
5 28 9 20.60 21.48 4.61 o
5 29 0 14.97 15.84 2.88 o
5 29 1 20.48 19.56 4.54 o
5 29 2 45.81 45.11 4.65 o
5 29 4 59.97 56.72 4.80 o
5 29 8 26.36 21.59 4.65 o
5 30 1 36.79 32.97 3.58 o
5 30 2 33.88 32.91 4.13 o
5 30 3 15.13 12.76 2.83 o
5 30 4 70.47 69.06 4.99 o
5 31 1 32.75 31.02 6.12 o
5 31 2 48.31 40.84 9.16 o
6 0 0 67.19 60.02 2.93 o
6 0 2 213.46 198.76 6.31 o
6 0 4 17.51 20.08 2.23 o
6 0 6 131.01 121.08 4.98 o
6 0 8 272.77 262.47 8.61 o
6 1 0 378.02 370.76 9.62 o
6 1 2 1.73 4.05 1.19 o
6 1 3 100.20 96.32 3.12 o
6 1 4 11.41 10.05 1.45 o
6 1 5 102.11 101.16 3.20 o
6 1 6 223.62 220.28 6.46 o
6 1 7 40.40 43.32 2.33 o
6 1 8 4.15 6.16 1.46 o
6 1 9 21.64 24.76 2.69 o
6 2 0 44.22 42.93 1.79 o
6 2 1 206.89 196.95 5.41 o
6 2 2 245.92 231.06 6.24 o
6 2 3 45.50 44.90 1.97 o
6 2 4 54.58 55.26 2.22 o
6 2 5 14.97 15.43 1.19 o
6 2 6 60.94 61.89 3.15 o
6 2 7 48.33 49.59 2.99 o
6 2 8 16.45 17.60 1.43 o
6 2 9 37.91 40.18 4.23 o
6 3 0 103.31 97.64 3.31 o
6 3 1 242.49 239.33 6.67 o
6 3 2 49.78 47.81 2.44 o
6 3 3 14.56 14.32 1.17 o
6 3 4 182.93 180.18 5.36 o
6 3 5 97.82 95.63 3.05 o
6 3 6 37.43 40.50 2.49 o
6 3 7 2.66 3.85 1.26 o
6 3 9 29.59 31.26 4.46 o
6 3 10 26.14 24.57 4.03 o
6 4 0 3.58 2.82 0.90 o
6 4 1 543.17 517.61 13.76 o
6 4 4 7.90 6.39 1.07 o
6 4 7 114.13 117.62 5.69 o
6 4 8 31.15 27.90 4.71 o
6 4 9 254.41 232.41 8.75 o
6 4 10 7.97 9.53 2.73 o
6 4 11 38.01 36.69 3.82 o
6 5 0 17.51 16.53 1.17 o
6 5 1 89.32 84.61 2.79 o
6 5 2 202.16 195.13 5.53 o
6 5 3 8.45 8.50 1.33 o
6 5 4 651.29 617.67 16.87 o
6 5 5 9.42 9.63 1.74 o
6 5 6 124.62 117.17 6.21 o
6 5 8 59.29 65.50 5.16 o
6 5 10 80.83 86.29 4.93 o
6 6 0 19.76 21.11 1.20 o
6 6 1 7.30 7.35 1.01 o
6 6 2 123.63 119.60 3.71 o
6 6 3 1007.01 988.47 30.47 o
6 6 4 201.78 196.72 5.60 o
6 6 5 49.22 45.96 2.30 o
6 6 6 101.96 97.41 5.39 o
6 6 7 133.30 130.10 5.01 o
6 6 8 50.68 56.04 5.31 o
6 7 0 293.85 290.31 7.65 o
6 7 2 118.97 110.88 3.70 o
6 7 3 65.80 63.67 3.17 o
6 7 4 6.37 7.56 1.47 o
6 7 5 82.91 82.41 3.07 o
6 7 6 17.42 18.09 2.39 o
6 7 7 62.42 60.61 4.30 o
6 7 8 54.38 52.58 5.52 o
6 7 9 110.78 107.64 5.98 o
6 7 10 41.75 34.82 5.02 o
6 7 11 74.98 77.86 5.01 o
6 8 0 170.75 161.96 5.44 o
6 8 1 98.25 92.30 2.85 o
6 8 2 255.53 246.06 7.01 o
6 8 3 78.69 74.31 3.60 o
6 8 4 12.10 11.87 1.24 o
6 8 5 7.94 9.12 1.41 o
6 8 6 67.05 68.03 4.01 o
6 8 8 170.13 157.91 7.65 o
6 8 9 19.49 19.54 3.43 o
6 9 0 58.14 56.78 2.49 o
6 9 1 56.83 54.04 2.31 o
6 9 2 26.15 26.55 1.48 o
6 9 3 106.27 102.57 3.69 o
6 9 4 23.83 24.54 1.51 o
6 9 5 246.77 250.26 7.59 o
6 9 9 23.70 21.65 3.61 o
6 9 11 67.14 69.33 5.35 o
6 9 12 20.08 18.92 3.20 o
6 10 0 89.37 91.32 4.13 o
6 10 1 25.63 25.67 1.44 o
6 10 2 118.95 114.36 3.79 o
6 10 3 49.18 50.58 2.35 o
6 10 4 77.41 77.39 2.99 o
6 10 5 12.71 13.47 2.19 o
6 10 8 112.68 102.92 6.36 o
6 10 9 33.65 35.63 5.45 o
6 10 10 34.13 26.22 3.74 o
6 10 11 14.96 11.97 3.50 o
6 10 12 135.42 134.27 6.72 o
6 10 13 57.89 58.86 4.23 o
6 11 0 19.46 19.85 1.39 o
6 11 1 92.64 88.91 3.54 o
6 11 2 16.66 15.87 1.27 o
6 11 4 70.84 68.75 2.85 o
6 11 5 79.96 81.07 3.10 o
6 11 6 62.60 68.74 3.31 o
6 11 7 23.71 25.93 1.60 o
6 11 10 110.54 122.88 6.99 o
6 11 11 23.71 18.29 3.63 o
6 11 12 72.10 70.69 5.24 o
6 12 0 51.80 54.69 2.69 o
6 12 1 425.27 419.71 13.04 o
6 12 4 8.92 8.50 1.20 o
6 12 5 13.60 14.05 1.28 o
6 12 7 300.05 300.07 8.62 o
6 12 9 109.60 117.31 7.04 o
6 12 10 50.30 47.45 5.92 o
6 12 11 82.89 76.59 5.97 o
6 12 12 10.38 10.29 3.39 o
6 12 13 17.24 14.89 3.05 o
6 13 0 263.57 259.48 9.06 o
6 13 1 30.45 30.28 2.04 o
6 13 2 67.37 63.77 5.73 o
6 13 4 66.38 67.42 2.83 o
6 13 6 91.03 91.41 3.37 o
6 13 7 26.63 26.06 2.45 o
6 13 10 56.74 64.06 4.27 o
6 13 12 35.75 30.35 5.21 o
6 13 13 13.39 14.84 3.11 o
6 14 0 116.63 114.75 3.46 o
6 14 1 37.24 38.11 2.49 o
6 14 3 362.38 364.21 13.51 o
6 14 5 18.74 17.87 1.65 o
6 14 7 60.17 65.01 2.87 o
6 14 10 116.31 124.42 5.20 o
6 14 11 42.21 45.64 4.19 o
6 14 12 59.52 57.26 5.52 o
6 14 13 18.20 18.11 3.18 o
6 14 15 34.63 36.55 5.31 o
6 15 0 79.23 80.67 2.73 o
6 15 1 8.45 6.69 1.06 o
6 15 3 69.45 68.88 3.06 o
6 15 4 14.52 15.20 2.23 o
6 15 5 37.02 38.32 2.13 o
6 15 6 43.31 42.56 2.46 o
6 15 8 8.71 11.72 2.60 o
6 15 10 44.14 51.34 3.63 o
6 15 11 88.71 99.05 8.14 o
6 15 16 15.94 16.46 3.89 o
6 16 0 12.34 11.17 1.32 o
6 16 1 7.24 5.89 1.28 o
6 16 2 162.98 160.14 4.87 o
6 16 3 40.98 40.93 2.35 o
6 16 4 7.43 5.88 1.23 o
6 16 6 98.28 98.85 3.57 o
6 16 7 16.27 14.44 1.55 o
6 16 8 135.34 139.70 5.27 o
6 16 9 28.86 28.31 3.17 o
6 16 11 15.76 19.91 3.35 o
6 16 12 11.78 12.82 3.30 o
6 16 14 41.03 50.32 6.16 o
6 17 0 67.53 66.66 3.37 o
6 17 1 237.99 234.34 6.89 o
6 17 2 28.62 26.88 2.72 o
6 17 3 7.74 8.32 2.44 o
6 17 4 89.11 86.17 3.34 o
6 17 5 488.02 470.46 19.24 o
6 17 6 20.95 18.18 2.06 o
6 17 7 5.76 6.72 1.48 o
6 17 8 11.96 10.40 2.49 o
6 17 9 80.71 89.01 5.22 o
6 17 12 12.29 11.93 2.04 o
6 17 13 23.29 25.17 2.25 o
6 17 15 11.67 19.22 3.98 o
6 18 0 105.15 106.79 4.77 o
6 18 1 20.10 20.27 2.39 o
6 18 2 84.69 81.67 5.52 o
6 18 3 110.27 106.67 4.29 o
6 18 4 12.38 11.53 2.04 o
6 18 7 30.84 32.40 2.49 o
6 18 8 70.11 74.09 3.67 o
6 18 13 5.80 7.58 1.97 o
6 18 14 22.70 31.74 9.41 o
6 19 2 5.82 9.04 1.96 o
6 19 3 51.01 52.63 3.78 o
6 19 4 173.35 170.23 8.22 o
6 19 5 14.36 11.58 2.21 o
6 19 7 80.48 85.75 4.00 o
6 19 10 13.57 15.32 1.82 o
6 19 11 20.49 21.79 1.94 o
6 19 12 39.70 43.66 3.44 o
6 19 13 10.41 13.70 2.49 o
6 20 1 90.33 89.84 4.59 o
6 20 2 14.93 13.27 3.58 o
6 20 3 52.05 52.74 8.19 o
6 20 5 47.11 46.30 3.30 o
6 20 6 26.39 25.27 2.98 o
6 20 7 54.02 48.11 3.29 o
6 20 9 17.46 19.92 2.25 o
6 20 10 8.53 9.52 2.08 o
6 20 12 14.07 9.84 2.46 o
6 21 0 54.44 53.95 3.76 o
6 21 4 48.20 50.40 4.84 o
6 21 5 16.69 15.39 2.22 o
6 21 6 32.55 31.15 2.21 o
6 21 9 6.50 7.89 2.09 o
6 21 10 67.73 76.11 4.19 o
6 21 11 34.17 36.45 4.46 o
6 21 12 12.85 14.63 3.27 o
6 21 13 35.64 35.74 6.71 o
6 22 0 25.98 24.15 2.26 o
6 22 1 43.48 41.57 4.46 o
6 22 3 52.19 52.56 3.74 o
6 22 5 15.96 13.55 2.18 o
6 22 7 25.16 25.09 2.11 o
6 22 9 44.07 43.03 4.09 o
6 22 10 9.19 11.01 2.63 o
6 23 0 137.13 132.81 5.48 o
6 23 2 23.07 22.02 4.18 o
6 23 3 9.89 8.59 2.10 o
6 23 5 36.86 35.86 3.08 o
6 23 6 58.87 56.15 3.90 o
6 23 7 12.87 15.70 1.96 o
6 23 9 73.06 72.36 9.10 o
6 23 10 15.21 14.33 2.19 o
6 23 11 16.89 18.55 3.83 o
6 24 0 22.52 17.30 2.95 o
6 24 1 89.13 83.72 14.90 o
6 24 2 57.77 56.54 3.87 o
6 24 3 10.25 10.02 2.09 o
6 24 6 18.72 17.25 2.64 o
6 24 7 10.47 12.06 1.90 o
6 24 8 63.36 66.44 4.00 o
6 25 2 36.18 32.86 9.48 o
6 25 3 20.23 18.58 4.75 o
6 25 4 84.34 82.28 4.34 o
6 25 5 50.01 48.27 3.66 o
6 25 8 46.43 50.64 4.38 o
6 25 9 10.62 8.29 2.11 o
6 25 10 6.22 8.00 2.22 o
6 26 1 24.30 21.18 3.05 o
6 26 2 44.54 44.48 4.79 o
6 26 4 29.36 30.59 3.68 o
6 26 6 11.94 12.76 2.14 o
6 27 0 12.54 10.40 2.14 o
6 27 1 13.36 14.52 2.91 o
6 27 4 32.77 30.90 5.51 o
6 27 5 18.11 15.94 2.92 o
6 27 7 32.05 41.32 5.83 o
6 27 8 29.64 32.40 6.37 o
6 28 0 15.53 13.94 2.17 o
6 28 1 26.82 25.14 2.64 o
6 28 2 32.24 30.46 2.84 o
6 28 3 15.04 14.34 2.88 o
6 28 4 17.98 16.25 4.27 o
6 28 6 65.69 68.33 6.96 o
6 29 3 13.00 11.08 3.35 o
6 29 4 43.10 40.53 6.50 o
7 0 2 47.80 46.83 3.14 o
7 0 4 115.06 113.94 4.52 o
7 0 6 22.38 24.95 1.88 o
7 0 8 58.53 55.47 3.85 o
7 0 10 117.53 121.25 8.19 o
7 0 12 19.27 20.96 4.17 o
7 0 14 41.35 45.71 6.05 o
7 0 16 31.87 26.54 4.92 o
7 1 0 31.32 33.34 2.14 o
7 1 1 229.67 224.13 6.75 o
7 1 2 289.04 277.90 7.54 o
7 1 5 32.95 33.66 1.65 o
7 1 6 8.81 5.97 1.52 o
7 1 7 50.79 49.50 2.48 o
7 1 8 111.28 106.83 5.42 o
7 1 9 35.33 37.55 8.13 o
7 1 12 19.73 18.82 6.07 o
7 1 13 141.39 159.65 9.14 o
7 1 14 25.30 19.44 2.67 o
7 2 0 82.98 79.19 3.25 o
7 2 2 4.97 6.77 1.10 o
7 2 3 69.02 66.47 2.96 o
7 2 4 156.18 156.18 4.64 o
7 2 5 28.47 29.31 1.50 o
7 2 6 23.06 25.13 1.47 o
7 2 7 25.26 23.29 1.71 o
7 2 8 13.52 14.68 1.70 o
7 2 9 26.76 27.86 2.11 o
7 2 11 23.03 21.24 4.37 o
7 3 0 163.09 160.48 4.58 o
7 3 1 21.16 21.19 1.30 o
7 3 2 89.06 86.35 3.10 o
7 3 3 115.49 114.85 4.17 o
7 3 4 24.85 24.80 1.38 o
7 3 6 81.11 84.90 3.13 o
7 3 7 63.47 65.05 3.62 o
7 3 8 13.70 15.94 1.72 o
7 3 11 19.44 25.14 4.03 o
7 3 15 42.15 43.08 5.84 o
7 4 0 2.17 3.05 0.94 o
7 4 1 17.27 19.66 1.26 o
7 4 3 294.00 295.71 8.95 o
7 4 6 9.48 8.64 1.14 o
7 4 9 51.27 54.47 6.69 o
7 4 10 18.86 22.11 2.55 o
7 4 11 127.82 133.88 9.19 o
7 4 15 31.20 35.41 5.70 o
7 4 17 34.47 33.69 5.30 o
7 5 0 34.89 35.10 2.01 o
7 5 1 32.53 35.14 1.86 o
7 5 2 19.39 22.13 1.47 o
7 5 3 23.52 21.02 1.68 o
7 5 4 175.18 168.44 5.19 o
7 5 5 5.47 5.90 1.26 o
7 5 6 361.10 367.81 15.15 o
7 5 7 14.07 13.82 1.61 o
7 5 8 64.57 68.93 15.55 o
7 5 10 18.53 16.87 2.24 o
7 5 12 31.56 31.14 4.57 o
7 5 14 11.39 12.47 3.94 o
7 6 0 7.48 7.73 1.00 o
7 6 1 6.68 5.43 1.05 o
7 6 2 37.12 37.81 1.87 o
7 6 3 19.05 19.17 1.43 o
7 6 4 117.44 110.43 3.88 o
7 6 5 612.76 609.93 23.44 o
7 6 6 86.17 85.45 3.93 o
7 6 7 16.97 18.16 1.69 o
7 6 8 44.09 43.83 9.39 o
7 6 9 59.09 56.98 4.30 o
7 6 10 12.91 12.41 2.22 o
7 7 0 143.25 142.62 4.76 o
7 7 1 126.03 126.03 4.58 o
7 7 2 150.41 147.98 4.51 o
7 7 4 54.44 51.49 2.71 o
7 7 5 33.22 38.38 2.43 o
7 7 6 15.43 15.57 1.67 o
7 7 7 41.03 47.71 2.96 o
7 7 8 17.02 16.79 1.92 o
7 7 9 40.07 43.43 9.02 o
7 7 10 28.54 29.27 6.90 o
7 7 11 38.27 56.26 7.28 o
7 7 12 17.03 16.95 4.42 o
7 7 13 34.56 38.66 4.70 o
7 7 15 9.75 13.58 3.90 o
7 7 17 15.03 13.35 4.13 o
7 8 0 27.41 25.80 1.51 o
7 8 2 116.32 114.75 4.68 o
7 8 3 94.12 92.29 3.31 o
7 8 4 97.67 97.46 4.14 o
7 8 5 52.34 51.21 3.14 o
7 8 8 22.99 21.69 2.03 o
7 8 10 92.89 95.43 5.26 o
7 8 11 13.49 12.10 2.26 o
7 8 15 12.45 15.56 4.09 o
7 8 16 114.06 108.66 7.84 o
7 9 0 3.07 4.16 0.98 o
7 9 1 117.81 118.68 3.76 o
7 9 2 48.39 47.86 2.36 o
7 9 3 54.57 51.97 2.51 o
7 9 4 13.12 11.37 1.97 o
7 9 5 44.02 44.20 2.87 o
7 9 6 11.20 10.17 1.62 o
7 9 7 112.82 123.06 4.87 o
7 9 13 38.57 51.13 6.87 o
7 9 16 13.48 19.82 4.16 o
7 10 0 107.20 110.51 3.61 o
7 10 1 43.59 43.63 2.32 o
7 10 2 16.58 16.38 1.52 o
7 10 3 7.32 7.69 1.38 o
7 10 4 72.74 74.61 3.50 o
7 10 5 30.46 27.34 2.22 o
7 10 6 52.83 52.53 3.34 o
7 10 10 57.91 62.80 4.77 o
7 10 11 23.69 24.56 3.73 o
7 10 12 21.32 16.26 4.31 o
7 10 14 71.63 83.12 7.38 o
7 10 15 23.76 30.14 4.51 o
7 10 16 13.71 13.93 3.99 o
7 11 0 89.72 92.37 3.49 o
7 11 1 51.30 48.86 2.05 o
7 11 2 14.98 15.11 1.34 o
7 11 3 56.75 55.78 2.79 o
7 11 6 31.99 32.14 2.89 o
7 11 7 41.51 45.84 3.15 o
7 11 8 43.39 42.29 2.85 o
7 11 9 9.57 7.66 2.41 o
7 11 12 45.78 44.73 6.84 o
7 11 14 32.58 33.49 4.62 o
7 12 1 44.20 44.11 2.38 o
7 12 2 34.46 33.36 1.88 o
7 12 3 284.08 295.00 12.95 o
7 12 7 14.23 14.40 2.74 o
7 12 9 140.75 144.61 7.03 o
7 12 11 55.25 60.55 4.56 o
7 12 12 22.73 22.08 2.57 o
7 12 13 21.13 18.58 4.19 o
7 13 0 90.03 90.06 3.10 o
7 13 1 10.61 9.57 1.18 o
7 13 2 145.90 145.63 4.86 o
7 13 3 8.46 8.11 1.12 o
7 13 4 16.74 14.56 1.62 o
7 13 5 12.03 11.74 1.41 o
7 13 6 21.76 21.35 2.29 o
7 13 8 65.30 70.87 4.20 o
7 13 9 13.29 14.47 4.25 o
7 13 12 32.44 34.94 3.17 o
7 13 14 14.92 17.46 4.15 o
7 14 0 4.71 5.35 1.03 o
7 14 1 8.22 7.79 1.18 o
7 14 2 54.44 54.51 3.13 o
7 14 3 13.35 12.32 1.18 o
7 14 5 207.44 217.93 6.28 o
7 14 9 19.10 18.35 2.86 o
7 14 12 69.37 71.31 4.65 o
7 14 13 26.80 25.87 4.37 o
7 14 14 30.88 29.57 4.43 o
7 15 0 51.89 53.59 2.56 o
7 15 1 86.66 87.34 3.22 o
7 15 2 47.57 45.63 2.47 o
7 15 5 55.16 56.24 2.68 o
7 15 6 3.79 7.26 1.39 o
7 15 7 10.36 9.79 1.50 o
7 15 8 31.91 35.00 4.57 o
7 15 12 13.98 11.86 2.44 o
7 15 13 60.39 66.34 7.26 o
7 16 1 5.28 4.52 1.39 o
7 16 4 58.55 63.61 2.81 o
7 16 5 34.10 30.51 2.06 o
7 16 6 29.71 30.26 1.75 o
7 16 7 5.33 5.55 1.56 o
7 16 8 50.44 54.52 3.27 o
7 16 10 90.40 91.46 7.17 o
7 17 2 44.93 43.38 2.39 o
7 17 3 197.15 198.91 6.05 o
7 17 4 17.64 15.09 1.48 o
7 17 6 55.86 58.38 3.18 o
7 17 7 269.69 286.92 8.63 o
7 17 8 12.09 14.18 1.82 o
7 17 11 32.16 37.57 7.22 o
7 18 0 102.60 100.66 4.30 o
7 18 2 36.14 35.78 3.25 o
7 18 3 5.39 6.34 2.02 o
7 18 4 56.97 58.45 3.16 o
7 18 5 78.08 76.07 3.50 o
7 18 6 6.72 5.65 1.56 o
7 18 10 32.33 38.98 3.42 o
7 19 0 52.73 55.54 3.97 o
7 19 1 245.30 243.80 7.82 o
7 19 4 12.95 12.99 1.97 o
7 19 5 15.72 16.84 1.71 o
7 19 6 83.55 89.60 3.76 o
7 19 7 9.50 10.05 1.61 o
7 19 8 4.23 5.70 1.75 o
7 19 9 49.90 53.77 3.24 o
7 19 12 7.14 10.48 3.18 o
7 20 3 53.25 56.63 3.95 o
7 20 4 9.22 9.34 2.22 o
7 20 5 31.78 33.35 2.89 o
7 20 7 15.48 15.98 1.96 o
7 20 8 11.36 10.02 2.14 o
7 20 9 24.53 25.20 2.38 o
7 20 11 12.15 10.96 2.61 o
7 21 0 94.64 89.17 4.60 o
7 21 1 11.00 8.01 2.12 o
7 21 2 43.88 43.86 4.50 o
7 21 6 25.77 28.76 3.64 o
7 21 7 11.99 12.30 2.15 o
7 21 8 16.39 16.58 2.24 o
7 22 2 11.64 10.11 2.14 o
7 22 3 18.90 19.46 2.30 o
7 22 5 35.93 37.55 3.00 o
7 22 7 14.16 14.52 1.95 o
7 22 9 12.86 14.46 2.25 o
7 23 2 105.96 109.06 5.10 o
7 23 4 14.32 16.15 2.23 o
7 23 5 11.23 11.70 1.92 o
7 23 7 18.77 19.09 2.02 o
7 23 8 35.60 36.82 3.97 o
7 24 2 14.93 11.42 2.91 o
7 24 4 27.02 27.83 4.14 o
7 25 0 15.62 10.59 2.89 o
7 25 1 35.44 28.79 7.84 o
7 25 4 23.55 25.69 6.05 o
7 25 6 55.17 57.97 5.42 o
7 26 3 19.72 15.78 3.91 o
7 26 4 40.48 39.11 4.72 o
7 27 1 30.30 29.71 4.00 o
8 0 0 52.11 53.34 2.91 o
8 0 2 31.81 32.01 2.68 o
8 0 4 38.78 41.48 3.29 o
8 0 6 48.29 48.19 4.89 o
8 0 8 17.71 14.79 2.51 o
8 0 10 21.01 22.12 3.90 o
8 0 12 47.51 50.82 5.20 o
8 0 14 12.19 10.40 3.25 o
8 1 0 7.42 8.05 0.95 o
8 1 1 36.61 36.07 1.74 o
8 1 2 30.04 29.42 1.56 o
8 1 3 97.82 100.24 4.13 o
8 1 4 178.71 172.69 5.45 o
8 1 7 9.19 10.33 1.46 o
8 1 9 24.11 23.30 2.83 o
8 1 10 49.69 53.73 3.87 o
8 1 11 21.73 20.25 2.48 o
8 2 0 79.09 81.20 2.75 o
8 2 1 73.64 73.49 3.97 o
8 2 2 48.83 53.78 3.19 o
8 2 5 18.73 19.31 1.40 o
8 2 6 85.45 85.88 4.05 o
8 2 7 14.70 14.46 1.52 o
8 2 9 24.25 24.25 2.58 o
8 2 11 13.68 15.29 3.88 o
8 3 2 89.29 91.43 3.35 o
8 3 3 13.23 13.50 1.32 o
8 3 4 63.71 64.00 3.04 o
8 3 5 43.59 43.22 2.42 o
8 3 6 15.90 16.94 2.13 o
8 3 8 25.22 25.78 1.90 o
8 3 9 35.88 41.20 5.76 o
8 3 13 11.04 12.25 3.89 o
8 3 15 23.83 23.33 4.48 o
8 4 1 120.35 123.59 4.11 o
8 4 3 4.88 4.98 1.39 o
8 4 5 125.03 126.86 4.91 o
8 4 8 8.10 8.87 1.65 o
8 4 11 22.02 24.47 4.37 o
8 4 13 51.12 45.88 5.90 o
8 4 14 6.98 11.86 3.39 o
8 5 0 3.21 3.11 0.95 o
8 5 1 7.09 6.55 1.13 o
8 5 2 8.20 6.84 1.69 o
8 5 3 11.54 8.72 1.41 o
8 5 4 15.76 12.06 1.47 o
8 5 6 121.85 123.19 6.53 o
8 5 7 23.62 22.60 2.78 o
8 5 8 178.20 181.78 10.42 o
8 5 10 29.89 38.13 5.89 o
8 6 0 3.85 3.57 1.03 o
8 6 1 25.67 25.05 1.43 o
8 6 2 14.76 15.13 1.24 o
8 6 3 8.62 6.27 1.97 o
8 6 4 36.83 35.66 2.09 o
8 6 5 20.27 18.65 1.88 o
8 6 6 86.83 85.62 4.03 o
8 6 7 312.26 311.35 9.64 o
8 6 8 29.59 31.13 2.19 o
8 6 9 3.66 6.64 2.16 o
8 6 10 14.57 16.05 4.09 o
8 6 11 23.04 22.53 4.05 o
8 7 0 49.46 50.37 3.85 o
8 7 2 75.06 74.65 3.53 o
8 7 3 56.61 55.99 3.90 o
8 7 4 61.40 61.32 4.35 o
8 7 5 9.30 8.85 1.74 o
8 7 6 15.94 12.94 2.47 o
8 7 7 16.18 15.78 1.83 o
8 7 8 13.13 12.72 2.44 o
8 7 9 20.34 18.51 2.42 o
8 7 10 11.78 12.51 4.01 o
8 7 11 19.14 17.28 3.98 o
8 7 12 11.58 14.21 3.77 o
8 8 0 55.17 56.51 2.54 o
8 8 1 23.89 23.22 1.36 o
8 8 2 26.17 26.18 1.41 o
8 8 4 73.44 79.82 3.75 o
8 8 5 74.93 72.86 3.89 o
8 8 6 27.69 29.32 2.10 o
8 8 7 34.79 31.86 2.15 o
8 8 12 45.85 44.77 5.74 o
8 9 0 10.16 10.14 1.17 o
8 9 1 12.50 11.93 1.20 o
8 9 3 59.65 60.90 3.98 o
8 9 4 27.36 25.78 2.43 o
8 9 5 37.01 42.75 3.36 o
8 9 7 15.30 14.04 1.82 o
8 9 8 4.78 8.04 1.94 o
8 9 9 41.72 45.00 6.31 o
8 10 0 101.48 102.99 3.49 o
8 10 1 127.69 129.10 5.16 o
8 10 2 56.14 56.46 3.85 o
8 10 3 18.27 18.43 1.45 o
8 10 6 43.82 48.54 3.92 o
8 10 7 16.35 17.68 1.89 o
8 10 8 31.83 36.83 6.11 o
8 10 12 24.98 37.51 5.35 o
8 10 13 14.21 11.21 3.45 o
8 11 2 51.42 50.72 2.84 o
8 11 3 47.66 47.88 3.22 o
8 11 4 11.60 13.60 1.39 o
8 11 5 25.43 28.86 3.16 o
8 11 8 11.89 14.51 2.98 o
8 11 9 18.18 20.21 2.59 o
8 11 10 25.96 24.71 3.05 o
8 12 0 98.35 98.80 3.94 o
8 12 1 9.57 9.78 1.34 o
8 12 3 42.47 43.48 2.43 o
8 12 4 18.69 18.13 1.48 o
8 12 5 160.52 168.20 5.82 o
8 12 9 11.02 10.05 2.00 o
8 12 11 59.25 63.84 6.29 o
8 12 13 25.12 27.36 5.13 o
8 13 2 31.60 29.12 2.74 o
8 13 3 9.12 9.05 1.34 o
8 13 4 72.69 73.91 4.38 o
8 13 7 15.11 16.03 1.75 o
8 13 10 40.16 39.48 5.83 o
8 14 0 192.70 196.44 5.98 o
8 14 1 47.13 44.35 2.45 o
8 14 3 9.08 7.86 1.32 o
8 14 4 21.16 21.46 1.52 o
8 14 5 5.10 6.29 1.44 o
8 14 7 91.65 100.36 3.78 o
8 15 0 8.92 10.17 1.31 o
8 15 1 6.28 4.23 1.27 o
8 15 2 26.79 24.72 1.87 o
8 15 3 52.56 53.07 2.72 o
8 15 4 23.23 21.14 1.91 o
8 15 7 35.48 36.95 2.76 o
8 15 10 18.82 20.96 2.64 o
8 16 0 8.29 6.95 1.48 o
8 16 6 17.41 16.59 2.89 o
8 16 7 25.92 24.92 2.10 o
8 16 8 41.21 40.86 5.89 o
8 16 9 6.06 7.67 2.02 o
8 16 10 26.87 26.06 2.63 o
8 17 4 24.79 22.80 2.09 o
8 17 5 129.40 134.11 5.22 o
8 17 6 7.25 6.70 1.82 o
8 17 8 26.45 23.72 2.34 o
8 17 9 125.89 120.18 4.94 o
8 18 0 64.39 65.16 3.87 o
8 18 2 65.47 66.14 4.76 o
8 18 3 7.38 6.17 1.62 o
8 18 4 6.74 8.49 1.63 o
8 18 6 35.87 39.40 3.42 o
8 18 7 44.45 46.96 3.30 o
8 19 2 34.99 38.79 2.99 o
8 19 3 151.10 150.84 5.33 o
8 19 4 6.67 6.11 1.73 o
8 19 6 15.32 13.88 2.18 o
8 19 8 37.25 41.67 3.34 o
8 20 0 13.85 13.21 3.03 o
8 20 1 25.33 25.93 2.64 o
8 20 5 25.01 25.45 2.14 o
8 20 7 17.29 16.43 3.10 o
8 21 0 15.52 14.40 2.94 o
8 21 2 37.98 37.11 3.02 o
8 21 3 13.60 15.42 2.01 o
8 21 4 30.61 29.11 2.36 o
8 22 0 33.13 27.31 4.39 o
8 22 1 63.12 57.07 9.23 o
8 22 5 8.42 9.81 3.26 o
9 0 0 32.27 32.27 2.73 o
9 0 2 30.17 31.27 2.13 o
9 0 4 42.00 41.81 4.35 o
9 0 6 30.16 30.09 4.22 o
9 0 8 16.27 16.01 3.53 o
9 1 0 15.35 14.85 1.17 o
9 1 1 82.38 82.79 3.73 o
9 1 2 10.34 10.34 1.13 o
9 1 3 13.97 12.50 1.40 o
9 1 4 19.37 17.21 1.34 o
9 1 5 34.66 43.23 2.62 o
9 1 6 88.52 89.95 4.57 o
9 1 7 6.80 8.85 1.72 o
9 2 0 16.19 16.98 1.17 o
9 2 1 53.82 55.32 2.69 o
9 2 2 35.81 37.07 2.62 o
9 2 3 29.43 30.35 1.47 o
9 2 4 23.21 21.86 2.32 o
9 2 8 39.40 33.75 4.94 o
9 2 11 16.65 11.02 3.30 o
9 3 0 94.55 95.16 4.36 o
9 3 2 9.80 9.87 1.32 o
9 3 4 47.87 50.35 3.19 o
9 3 5 7.42 8.09 1.50 o
9 3 6 38.10 38.62 2.49 o
9 3 7 13.04 10.31 2.11 o
9 3 8 10.63 12.99 3.59 o
9 3 11 18.13 14.81 3.41 o
9 4 0 12.32 11.10 1.12 o
9 4 1 3.89 5.13 1.07 o
9 4 3 59.55 64.15 3.16 o
9 4 7 42.01 41.83 3.71 o
9 5 0 20.30 20.12 1.33 o
9 5 1 21.62 21.53 1.28 o
9 5 6 10.88 11.16 2.66 o
9 5 8 71.28 69.96 5.98 o
9 5 9 26.75 21.53 3.84 o
9 5 10 78.70 80.40 5.97 o
9 5 11 11.14 10.17 3.40 o
9 6 0 28.50 24.04 2.02 o
9 6 1 41.63 42.41 2.41 o
9 6 3 16.06 17.26 2.38 o
9 6 4 15.71 15.33 1.47 o
9 6 5 7.62 8.22 1.36 o
9 6 6 25.73 24.98 1.89 o
9 6 7 13.96 12.57 2.57 o
9 6 8 51.15 43.35 5.35 o
9 6 9 135.62 140.82 8.02 o
9 7 0 31.90 30.11 1.65 o
9 7 2 26.67 24.90 1.66 o
9 7 4 32.86 34.74 3.11 o
9 7 5 20.72 23.41 1.62 o
9 7 6 20.11 20.24 1.67 o
9 7 7 14.00 14.98 1.70 o
9 7 9 7.81 11.08 2.79 o
9 8 2 34.43 35.79 2.63 o
9 8 3 17.43 17.33 1.50 o
9 8 4 19.87 19.64 1.64 o
9 8 6 41.35 45.42 2.76 o
9 8 7 48.03 52.28 3.02 o
9 8 9 21.54 18.76 2.90 o
9 9 1 36.79 37.96 2.17 o
9 9 2 8.89 8.92 1.38 o
9 9 5 28.19 31.65 3.02 o
9 9 6 9.48 7.98 1.51 o
9 9 7 19.57 19.32 1.65 o
9 9 11 12.83 14.30 3.63 o
9 10 1 27.84 24.84 2.08 o
9 10 2 42.68 43.46 3.02 o
9 10 3 59.77 59.05 3.86 o
9 10 4 25.86 27.49 2.07 o
9 10 5 5.30 5.58 1.46 o
9 10 6 5.27 5.90 1.39 o
9 10 8 25.96 29.75 2.88 o
9 10 9 7.66 9.23 1.93 o
9 10 10 16.88 18.65 2.48 o
9 11 0 29.34 28.57 1.72 o
9 11 1 31.14 29.46 1.71 o
9 11 2 6.77 6.04 1.36 o
9 11 4 25.29 23.85 1.94 o
9 11 5 36.58 39.23 2.35 o
9 11 6 9.49 8.10 1.34 o
9 11 7 8.36 6.80 1.38 o
9 12 0 17.67 14.41 1.45 o
9 12 2 56.81 58.67 2.84 o
9 12 3 10.38 10.03 1.37 o
9 12 5 27.82 26.71 2.36 o
9 12 6 8.42 8.86 1.70 o
9 12 7 76.08 78.15 4.72 o
9 13 0 86.52 89.02 3.54 o
9 13 1 12.61 10.03 2.28 o
9 13 4 6.39 7.40 1.34 o
9 13 5 6.85 6.32 1.32 o
9 13 6 34.80 35.78 2.16 o
9 13 9 11.78 11.24 3.61 o
9 14 0 39.02 38.80 2.43 o
9 14 1 64.22 69.00 2.99 o
9 14 2 102.59 106.39 3.99 o
9 14 3 33.78 36.15 2.45 o
9 14 5 6.68 6.76 1.62 o
9 15 0 19.60 22.59 1.89 o
9 15 1 20.96 21.36 1.64 o
9 15 2 10.22 11.05 1.49 o
9 15 4 11.27 12.02 1.67 o
9 15 5 27.18 27.19 2.74 o
9 15 6 9.86 9.29 1.60 o
9 16 0 12.74 11.44 1.67 o
9 18 0 10.10 11.51 2.76 o
9 18 2 27.77 27.93 2.43 o
9 18 4 36.37 34.13 4.41 o
9 19 0 29.80 25.29 4.58 o
9 19 1 42.33 40.74 7.46 o
10 0 0 20.10 21.33 1.92 o
10 0 2 52.83 54.52 3.88 o
10 0 4 18.29 20.83 2.08 o
10 0 6 35.53 38.41 5.58 o
10 0 8 19.54 21.83 3.40 o
10 1 0 65.59 70.24 2.61 o
10 1 1 5.67 4.31 1.15 o
10 1 2 7.04 6.30 1.12 o
10 1 3 38.28 38.97 2.33 o
10 1 4 8.69 9.06 1.37 o
10 1 6 9.23 7.82 1.30 o
10 1 7 11.25 12.20 1.96 o
10 1 8 35.05 30.91 7.55 o
10 2 0 61.04 64.25 2.49 o
10 2 1 29.64 32.38 1.97 o
10 2 2 10.29 10.47 1.27 o
10 2 3 24.21 24.94 1.55 o
10 2 4 15.42 13.84 1.46 o
10 2 5 9.98 10.18 1.36 o
10 2 6 8.88 7.74 1.32 o
10 3 0 6.10 5.48 1.09 o
10 3 1 56.31 60.97 3.00 o
10 3 2 49.23 55.41 3.55 o
10 3 4 11.33 11.81 2.02 o
10 3 6 24.16 24.86 1.83 o
10 3 8 19.54 18.42 3.44 o
10 4 0 8.82 7.60 1.29 o
10 4 2 7.35 6.61 1.27 o
10 4 5 26.06 30.34 2.89 o
10 5 0 20.87 17.94 1.95 o
10 5 1 14.26 15.84 1.66 o
10 5 2 10.54 12.61 1.38 o
10 5 3 13.60 14.33 1.73 o
10 6 0 14.32 14.67 1.47 o
10 6 2 10.15 9.81 1.37 o
10 6 3 14.48 14.69 1.45 o
10 6 5 9.09 6.22 1.59 o
10 6 6 11.66 9.78 1.58 o
10 7 0 20.30 20.52 1.68 o
10 7 1 48.03 52.12 2.64 o
10 7 2 18.58 19.69 1.54 o
10 7 4 12.57 8.59 1.37 o
10 7 6 12.36 13.02 2.78 o
10 8 0 42.47 41.16 2.39 o
10 8 4 19.32 20.87 2.20 o
10 8 5 11.33 11.08 1.62 o
10 8 6 12.71 13.50 3.63 o
10 9 0 54.65 54.00 2.67 o
10 9 1 15.78 14.74 1.48 o
10 9 3 23.33 25.49 1.88 o
10 10 1 32.43 32.14 2.12 o
10 10 3 13.81 13.78 1.43 o
10 10 4 14.40 12.90 1.57 o
10 10 5 24.43 25.99 3.33 o
10 11 0 7.48 5.98 1.33 o
10 11 2 11.24 10.21 1.40 o
10 11 3 31.71 31.81 2.01 o
10 11 4 9.19 8.41 2.07 o
10 12 0 8.29 7.74 1.40 o
10 12 1 5.90 4.90 1.43 o
10 12 2 9.01 7.50 1.45 o
