#------------------------------------------------------------------------------
#$Date: 2016-02-18 17:37:37 +0200 (Thu, 18 Feb 2016) $
#$Revision: 176729 $
#$URL: svn://www.crystallography.net/cod/cif/1/51/77/1517792.cif $
#------------------------------------------------------------------------------
#
# This file is available in the Crystallography Open Database (COD),
# http://www.crystallography.net/
#
# All data on this site have been placed in the public domain by the
# contributors.
#
data_1517792
loop_
_publ_author_name
'Dorot\'ikov\'a, Sandra'
'Plevov\'a, Krist\'ina'
'Bu\<cinsk\'y, Luk\'a\<s'
'Mal\<cek, Michal'
'Herich, Peter'
'Kuckov\'a, Lenka'
'Bobeni\<cov\'a, Miroslava'
'Soralov\'a, Stanislava'
'Ko\<z\'i\<sek, Jozef'
'Fronc, Marek'
'Milata, Viktor'
'Dvoranov\'a, Dana'
_publ_section_title
;
 Conformational, spectroscopic, and molecular dynamics DFT study of
 precursors for new potential antibacterial fluoroquinolone drugs.
;
_journal_issue                   40
_journal_name_full               'The journal of physical chemistry. A'
_journal_page_first              9540
_journal_page_last               9551
_journal_paper_doi               10.1021/jp506355f
_journal_volume                  118
_journal_year                    2014
_chemical_formula_moiety         'C14 H16 F N O4'
_chemical_formula_sum            'C14 H16 F N O4'
_chemical_formula_weight         281.28
_chemical_name_systematic
; 
 ? 
;
_space_group_crystal_system      triclinic
_space_group_IT_number           2
_space_group_name_Hall           '-P 1'
_space_group_name_H-M_alt        'P -1'
_symmetry_space_group_name_Hall  '-P 1'
_symmetry_space_group_name_H-M   'P -1'
_atom_sites_solution_hydrogens   geom
_audit_creation_method           SHELXL-2013
_cell_angle_alpha                90.566(9)
_cell_angle_beta                 95.610(8)
_cell_angle_gamma                100.043(6)
_cell_formula_units_Z            2
_cell_length_a                   8.7649(5)
_cell_length_b                   8.7954(7)
_cell_length_c                   9.0065(14)
_cell_measurement_reflns_used    2922
_cell_measurement_temperature    100.0(1)
_cell_measurement_theta_max      29.1010
_cell_measurement_theta_min      3.1300
_cell_volume                     680.15(13)
_computing_cell_refinement       'CrysAlis CCD'
_computing_data_collection       'CrysAlis CCD (Oxford Diffraction, 2010)'
_computing_data_reduction        'CrysAlis RED (Oxford Diffraction, 2010)'
_computing_molecular_graphics    'DIAMOND (Brandenburg, 1998)'
_computing_publication_material  ' enCIFer (Allen et al., 2008)'
_computing_structure_refinement  'SHELXL-2013 (Sheldrick, 2013)'
_computing_structure_solution    'SHELXS-2008 (Sheldrick, 2008)'
_diffrn_ambient_temperature      100.0(1)
_diffrn_detector_area_resol_mean 5.2170
_diffrn_measured_fraction_theta_full 0.959
_diffrn_measured_fraction_theta_max 0.950
_diffrn_measurement_device_type  'Xcalibur, Ruby, Gemini'
_diffrn_measurement_method       '\w scans'
_diffrn_radiation_type           MoK\a
_diffrn_radiation_wavelength     0.71073
_diffrn_reflns_av_R_equivalents  0.0456
_diffrn_reflns_av_unetI/netI     0.0451
_diffrn_reflns_Laue_measured_fraction_full 0.959
_diffrn_reflns_Laue_measured_fraction_max 0.950
_diffrn_reflns_limit_h_max       10
_diffrn_reflns_limit_h_min       -10
_diffrn_reflns_limit_k_max       10
_diffrn_reflns_limit_k_min       -10
_diffrn_reflns_limit_l_max       11
_diffrn_reflns_limit_l_min       -11
_diffrn_reflns_number            7910
_diffrn_reflns_point_group_measured_fraction_full 0.959
_diffrn_reflns_point_group_measured_fraction_max 0.950
_diffrn_reflns_theta_full        25.000
_diffrn_reflns_theta_max         26.371
_diffrn_reflns_theta_min         4.115
_diffrn_source                   'Enhance (Mo) X-ray Source'
_exptl_absorpt_coefficient_mu    0.109
_exptl_absorpt_correction_T_max  0.992
_exptl_absorpt_correction_T_min  0.971
_exptl_absorpt_correction_type   analytical
_exptl_absorpt_process_details
;
CrysAlisPro, Agilent Technologies,
Version 1.171.37.31 (release 14-01-2014 CrysAlis171 .NET)
(compiled Jan 14 2014,18:38:05)
Analytical numeric absorption correction using a multifaceted crystal
            model based on expressions derived by R.C. Clark & J.S. Reid.
(Clark, R. C. & Reid, J. S. (1995). Acta Cryst. A51, 887-897)
Empirical absorption correction using spherical harmonics,
 implemented in SCALE3 ABSPACK scaling algorithm.
;
_exptl_crystal_colour            colourless
_exptl_crystal_density_diffrn    1.373
_exptl_crystal_density_method    'not measured'
_exptl_crystal_description       block
_exptl_crystal_F_000             296
_exptl_crystal_size_max          0.6887
_exptl_crystal_size_mid          0.2224
_exptl_crystal_size_min          0.0718
_refine_diff_density_max         0.357
_refine_diff_density_min         -0.302
_refine_diff_density_rms         0.054
_refine_ls_extinction_method     none
_refine_ls_goodness_of_fit_ref   1.041
_refine_ls_hydrogen_treatment    constr
_refine_ls_matrix_type           full
_refine_ls_number_parameters     191
_refine_ls_number_reflns         2637
_refine_ls_number_restraints     0
_refine_ls_restrained_S_all      1.041
_refine_ls_R_factor_all          0.0683
_refine_ls_R_factor_gt           0.0534
_refine_ls_shift/su_max          0.000
_refine_ls_shift/su_mean         0.000
_refine_ls_structure_factor_coef Fsqd
_refine_ls_weighting_details
'w=1/[\s^2^(Fo^2^)+(0.0704P)^2^+0.1394P] where P=(Fo^2^+2Fc^2^)/3'
_refine_ls_weighting_scheme      calc
_refine_ls_wR_factor_gt          0.1285
_refine_ls_wR_factor_ref         0.1398
_reflns_Friedel_coverage         0.000
_reflns_number_gt                2097
_reflns_number_total             2637
_reflns_threshold_expression     'I > 2\s(I)'
_cod_data_source_file            jp506355f_si_002.cif
_cod_data_source_block           I
_cod_depositor_comments
'Adding full bibliography for 1517792--1517794.cif.'
_cod_original_cell_volume        680.15(12)
_cod_database_code               1517792
#BEGIN Tags that were not found in dictionaries:
_shelx_space_group_comment
; 
The symmetry employed for this shelxl refinement is uniquely defined 
by the following loop, which should always be used as a source of 
symmetry information in preference to the above space-group names. 
They are only intended as comments. 
;
_shelxl_version_number           2013-4
_shelx_res_file
; 
TITL CF SOLUTION IN P-1 
CELL  0.71073  8.76493  8.79539  9.00654 90.56630 95.60990 100.04290 
ZERR 2  0.00053  0.00068  0.00136  0.00880  0.00790  0.00580 
LATT 1 
SFAC C H N O F 
UNIT 28 32 2 8 2 
PLAN 150 
FMAP 2 
L.S. 11 
ACTA 50 
MORE 3 
BOND $H 
EQIV_$1 -x+1, -y, -z+1 
HTAB C14 F2_$1 
EQIV_$2 x, y+1, z 
HTAB C14 O2_$2 
EQIV_$3 x, y-1, z 
HTAB C2 O1_$3 
HTAB N7 O2 
SHEL 5.0 0.8 
CONF 
WGHT    0.070400    0.139400 
FVAR       5.39009   0.87731 
C8    1    0.594218    0.127517    0.346975    11.00000    0.02592    0.02353 = 
         0.02922   -0.00202    0.00591    0.00055 
AFIX  43 
H8A   2    0.534301    0.182024    0.283722    11.00000   -1.20000 
AFIX   0 
C9    1    0.699078    0.212286    0.454645    11.00000    0.02351    0.02211 = 
         0.02715   -0.00313    0.00228   -0.00143 
C11   1    0.799134    0.134189    0.552863    11.00000    0.02428    0.02036 = 
         0.03082   -0.00758    0.00534   -0.00319 
C13   1    1.009672    0.150025    0.741667    11.00000    0.02836    0.02288 = 
         0.03562   -0.00575    0.00127    0.00309 
AFIX  23 
H13B  2    1.076168    0.099724    0.684865    11.00000   -1.20000 
H13A  2    0.949167    0.072833    0.798726    11.00000   -1.20000 
AFIX   0 
C15   1    1.106707    0.275098    0.844693    11.00000    0.02957    0.02887 = 
         0.03695   -0.00616   -0.00121    0.00266 
AFIX  33 
H15C  2    1.176477    0.230081    0.912668    11.00000   -1.20000 
H15B  2    1.039402    0.323864    0.900002    11.00000   -1.20000 
H15A  2    1.165748    0.350630    0.786714    11.00000   -1.20000 
AFIX   0 
C10   1    0.697193    0.379993    0.452931    11.00000    0.02305    0.02216 = 
         0.02788   -0.00178    0.00176   -0.00106 
C12   1    0.783327    0.622315    0.579919    11.00000    0.03460    0.01679 = 
         0.03814   -0.00358   -0.00123    0.00187 
AFIX  23 
H12B  2    0.680504    0.641208    0.596666    11.00000   -1.20000 
H12A  2    0.813471    0.672440    0.489172    11.00000   -1.20000 
AFIX   0 
C14   1    0.898538    0.681939    0.709556    11.00000    0.04547    0.02281 = 
         0.04192   -0.00784   -0.00778   -0.00191 
AFIX  33 
H14C  2    0.999508    0.662309    0.691220    11.00000   -1.20000 
H14B  2    0.867394    0.630724    0.798196    11.00000   -1.20000 
H14A  2    0.902767    0.791109    0.722579    11.00000   -1.20000 
AFIX   0 
C1    1    0.470446   -0.112971    0.213290    11.00000    0.02210    0.02524 = 
         0.02566   -0.00591    0.00412   -0.00307 
C6    1    0.367621   -0.049922    0.116483    11.00000    0.02869    0.02044 = 
         0.03217   -0.00644    0.00316   -0.00178 
AFIX  43 
H6A   2    0.360597    0.054106    0.124113    11.00000   -1.20000 
AFIX   0 
C5    1    0.275333   -0.146092    0.007779    11.00000    0.02614    0.02984 = 
         0.02901   -0.00407    0.00124   -0.00129 
PART 1 
AFIX  43 
H5A   2    0.205618   -0.104590   -0.057585   -21.00000   -1.20000 
PART 0 
AFIX   0 
C4    1    0.282453   -0.300864   -0.007635    11.00000    0.02948    0.02962 = 
         0.03218   -0.01308    0.00082   -0.00704 
AFIX  43 
H4A   2    0.220717   -0.362640   -0.082802    11.00000   -1.20000 
AFIX   0 
C3    1    0.384329   -0.360708    0.092339    11.00000    0.03369    0.02368 = 
         0.03985   -0.00916    0.00460   -0.00092 
PART 2 
AFIX  43 
H3A   2    0.390281   -0.465010    0.084935    21.00000   -1.20000 
PART 0 
AFIX   0 
C2    1    0.477383   -0.269752    0.202789    11.00000    0.02609    0.02749 = 
         0.03170   -0.00223    0.00163    0.00406 
AFIX  43 
H2A   2    0.544407   -0.312575    0.269934    11.00000   -1.20000 
AFIX   0 
N7    3    0.571498   -0.024437    0.325893    11.00000    0.02661    0.02189 = 
         0.02958   -0.00539   -0.00223   -0.00024 
AFIX  43 
H7A   2    0.624075   -0.074424    0.387560    11.00000   -1.20000 
AFIX   0 
O4    4    0.908462    0.225048    0.643479    11.00000    0.02685    0.02098 = 
         0.03551   -0.00571   -0.00312   -0.00035 
O2    4    0.787006   -0.007877    0.553943    11.00000    0.03516    0.01955 = 
         0.03812   -0.00633   -0.00218    0.00173 
O3    4    0.783722    0.458275    0.568382    11.00000    0.03360    0.01750 = 
         0.03337   -0.00694   -0.00637   -0.00118 
O1    4    0.622316    0.441347    0.358744    11.00000    0.04140    0.02499 = 
         0.03827   -0.00652   -0.01097    0.00175 
PART 1 
F2    5    0.368662   -0.512182    0.087977   -21.00000    0.03800    0.03915 = 
         0.03872   -0.01371   -0.01026    0.00972 
PART 2 
F1    5    0.175178   -0.085244   -0.084439    21.00000    0.03907    0.03242 = 
         0.03820   -0.00509   -0.01241    0.00074 
HKLF 4 
  
REM  CF SOLUTION IN P-1 
REM R1 =  0.0534 for    2097 Fo > 4sig(Fo)  and  0.0683 for all    2637 data 
REM    191 parameters refined using      0 restraints 
  
END 
  
WGHT      0.0704      0.1394 
  
REM Highest difference peak  0.357,  deepest hole -0.302,  1-sigma level  0.054 
Q1    1   0.8734 -0.0492  0.6136  11.00000  0.05    0.36 
Q2    1   0.7118  0.6760  0.5027  11.00000  0.05    0.25 
Q3    1   0.9540  0.6258  0.7841  11.00000  0.05    0.24 
Q4    1   0.7069  0.1753  0.5195  11.00000  0.05    0.24 
Q5    1   0.5116  0.2008  0.2402  11.00000  0.05    0.22 
Q6    1   1.0009  0.4840  0.7812  11.00000  0.05    0.20 
Q7    1   0.9990  0.1880  0.6588  11.00000  0.05    0.20 
Q8    1   0.3123 -0.3459  0.0746  11.00000  0.05    0.19 
Q9    1   0.7915  0.1997  0.4690  11.00000  0.05    0.19 
Q10   1   0.4772 -0.0754  0.1299  11.00000  0.05    0.19 
Q11   1   0.2508 -0.1149  0.0993  11.00000  0.05    0.19 
Q12   1   0.3923 -0.0665  0.0248  11.00000  0.05    0.19 
Q13   1   0.7219  0.1883  0.3797  11.00000  0.05    0.18 
Q14   1   0.3807 -0.3212  0.0124  11.00000  0.05    0.18 
Q15   1   0.6588 -0.0064  0.5155  11.00000  0.05    0.18 
Q16   1   0.8635  0.2725  0.7177  11.00000  0.05    0.18 
Q17   1   0.2651 -0.1103 -0.0304  11.00000  0.05    0.17 
Q18   1   0.6017  0.4130  0.4366  11.00000  0.05    0.17 
Q19   1   0.3123 -0.1871 -0.0717  11.00000  0.05    0.17 
Q20   1   0.2891 -0.0697 -0.0833  11.00000  0.05    0.17 
Q21   1   0.7363  0.0444  0.6383  11.00000  0.05    0.17 
Q22   1   0.6907  0.7658  0.4342  11.00000  0.05    0.16 
Q23   1   0.5684 -0.3394  0.2988  11.00000  0.05    0.16 
Q24   1   0.9231  0.2169  0.5748  11.00000  0.05    0.16 
Q25   1   0.5070  0.0592  0.3026  11.00000  0.05    0.16 
Q26   1   0.7150  0.4160  0.3688  11.00000  0.05    0.16 
Q27   1   1.0283  0.3210  0.9591  11.00000  0.05    0.16 
Q28   1   0.7794  0.3497  0.6421  11.00000  0.05    0.15 
Q29   1   0.8411 -0.0289  0.4729  11.00000  0.05    0.15 
Q30   1   0.6797  0.0346  0.5226  11.00000  0.05    0.15 
Q31   1   0.4024 -0.0567  0.1603  11.00000  0.05    0.15 
Q32   1   0.6605  0.0529  0.3807  11.00000  0.05    0.15 
Q33   1   0.8324  0.7829  0.7771  11.00000  0.05    0.15 
Q34   1   0.7111  0.2796  0.4635  11.00000  0.05    0.15 
Q35   1   1.2170  0.1607  0.8549  11.00000  0.05    0.14 
Q36   1   0.6064  0.3439  0.3886  11.00000  0.05    0.14 
Q37   1   0.2987 -0.2235  0.0074  11.00000  0.05    0.14 
Q38   1   0.8214  0.4793  0.4753  11.00000  0.05    0.14 
Q39   1   0.1826 -0.0010 -0.1761  11.00000  0.05    0.14 
Q40   1   0.7758 -0.0044  0.3764  11.00000  0.05    0.14 
Q41   1   0.6247 -0.1934  0.5184  11.00000  0.05    0.14 
Q42   1   0.0823 -0.0394 -0.1430  11.00000  0.05    0.14 
Q43   1   0.8355  0.6791  0.7712  11.00000  0.05    0.14 
Q44   1   0.1345 -0.0359 -0.0097  11.00000  0.05    0.14 
Q45   1   0.2172 -0.1355 -0.1725  11.00000  0.05    0.14 
Q46   1   0.3355  0.0456  0.0916  11.00000  0.05    0.13 
Q47   1   0.4996 -0.1410  0.1626  11.00000  0.05    0.13 
Q48   1   1.0212  0.2963  0.6380  11.00000  0.05    0.13 
Q49   1   0.5552 -0.2471  0.3998  11.00000  0.05    0.13 
Q50   1   0.4666 -0.3251  0.2987  11.00000  0.05    0.13 
Q51   1   1.2359  0.1945  1.0650  11.00000  0.05    0.13 
Q52   1   0.6847 -0.1036  0.4422  11.00000  0.05    0.13 
Q53   1   0.8395  0.0601  0.4480  11.00000  0.05    0.13 
Q54   1   0.6681 -0.2091  0.2964  11.00000  0.05    0.13 
Q55   1   0.7045  0.7003  0.7811  11.00000  0.05    0.13 
Q56   1   0.9996  0.3595  0.8370  11.00000  0.05    0.13 
Q57   1   0.1296 -0.1445  0.0154  11.00000  0.05    0.13 
Q58   1   0.5423  0.5357  0.3583  11.00000  0.05    0.13 
Q59   1   0.8640  0.4004  0.5854  11.00000  0.05    0.12 
Q60   1   0.6882  0.3771  0.2967  11.00000  0.05    0.12 
Q61   1   0.8525  0.6573  0.4823  11.00000  0.05    0.12 
Q62   1   1.2146  0.3230  0.8508  11.00000  0.05    0.12 
Q63   1   0.4922  0.0153  0.4006  11.00000  0.05    0.12 
Q64   1   0.7752 -0.0769  0.6270  11.00000  0.05    0.12 
Q65   1   0.9135 -0.0948  0.5276  11.00000  0.05    0.12 
Q66   1   0.8647  0.3898  0.5096  11.00000  0.05    0.12 
Q67   1   0.2175 -0.2420  0.1685  11.00000  0.05    0.11 
Q68   1   0.1656 -0.3590 -0.1212  11.00000  0.05    0.11 
Q69   1   0.8883  0.0554  0.5492  11.00000  0.05    0.11 
Q70   1   0.6007  0.1599  0.4371  11.00000  0.05    0.11 
Q71   1   0.4621 -0.0966  0.2931  11.00000  0.05    0.11 
Q72   1   0.3069  0.2044  0.1280  11.00000  0.05    0.11 
Q73   1   0.6485  0.2651  0.5200  11.00000  0.05    0.11 
Q74   1   0.2918  0.0506  0.1548  11.00000  0.05    0.11 
Q75   1   0.4659 -0.4340  0.0677  11.00000  0.05    0.11 
Q76   1   0.5971 -0.4211  0.1556  11.00000  0.05    0.11 
Q77   1   0.6784  0.5189  0.5443  11.00000  0.05    0.11 
Q78   1   0.0727  0.0093 -0.0710  11.00000  0.05    0.11 
Q79   1   0.6779 -0.3250  0.2393  11.00000  0.05    0.11 
Q80   1   1.2971  0.2581  0.9617  11.00000  0.05    0.11 
Q81   1   0.2922 -0.5782  0.1660  11.00000  0.05    0.11 
Q82   1   0.5780  0.4974  0.2807  11.00000  0.05    0.11 
Q83   1   1.3009  0.1395  0.9138  11.00000  0.05    0.10 
Q84   1   1.1348  0.3827  0.7746  11.00000  0.05    0.10 
Q85   1   0.4231 -0.2052  0.3523  11.00000  0.05    0.10 
Q86   1   0.7974  0.6502  0.8559  11.00000  0.05    0.10 
Q87   1   0.6066  0.7350  0.6963  11.00000  0.05    0.10 
Q88   1   0.5264  0.4471  0.3418  11.00000  0.05    0.10 
Q89   1   0.4828 -0.2828  0.1116  11.00000  0.05    0.10 
Q90   1   1.0853  0.5480  0.6907  11.00000  0.05    0.10 
Q91   1   0.5112 -0.2948  0.2275  11.00000  0.05    0.10 
Q92   1   0.2135 -0.3253  0.0608  11.00000  0.05    0.10 
Q93   1   0.9765  0.1071  0.7597  11.00000  0.05    0.10 
Q94   1   0.4356 -0.5509  0.1483  11.00000  0.05    0.10 
Q95   1   0.9246  0.8573  0.5992  11.00000  0.05    0.10 
Q96   1   0.8949  0.3095  0.5232  11.00000  0.05    0.10 
Q97   1   0.2132 -0.2629 -0.1808  11.00000  0.05    0.10 
Q98   1   0.9924  0.4622  0.5854  11.00000  0.05    0.10 
Q99   1   1.1613  0.2327  0.9436  11.00000  0.05    0.10 
Q100  1   0.7244  0.2894  0.3389  11.00000  0.05    0.10 
Q101  1   0.8891  0.1609  0.7250  11.00000  0.05    0.09 
Q102  1   0.6672 -0.0745  0.3084  11.00000  0.05    0.09 
Q103  1   0.4229 -0.5844  0.2200  11.00000  0.05    0.09 
Q104  1   0.6912  0.3983  0.5394  11.00000  0.05    0.09 
Q105  1   0.9821  0.7292  0.8819  11.00000  0.05    0.09 
Q106  1   0.5977 -0.0148  0.2185  11.00000  0.05    0.09 
Q107  1   0.5302  0.4525  0.4119  11.00000  0.05    0.09 
Q108  1   0.8435  0.8546  0.6944  11.00000  0.05    0.09 
Q109  1   0.9903  0.6088  0.6156  11.00000  0.05    0.09 
Q110  1   0.5350 -0.3774  0.1138  11.00000  0.05    0.09 
Q111  1   0.3794 -0.1396  0.1997  11.00000  0.05    0.09 
Q112  1   0.8945  0.4747  0.5656  11.00000  0.05    0.09 
Q113  1   0.8960  0.4643  0.8974  11.00000  0.05    0.09 
Q114  1   1.0580  0.4007  0.7198  11.00000  0.05    0.09 
Q115  1   0.0520 -0.1360 -0.0777  11.00000  0.05    0.09 
Q116  1   0.3952  0.2017  0.0354  11.00000  0.05    0.09 
Q117  1   0.5259 -0.1148  0.4223  11.00000  0.05    0.09 
Q118  1   0.9957  0.4443  0.9832  11.00000  0.05    0.09 
Q119  1   0.3009 -0.6214 -0.0165  11.00000  0.05    0.09 
Q120  1   0.6821  0.4959  0.2572  11.00000  0.05    0.09 
Q121  1   0.8937  0.4029  0.6857  11.00000  0.05    0.09 
Q122  1   0.4551  0.4904  0.3017  11.00000  0.05    0.09 
Q123  1   0.1862 -0.2387 -0.1954  11.00000  0.05    0.09 
Q124  1   1.0898  0.2007  0.7864  11.00000  0.05    0.09 
Q125  1   1.1294  0.1064  0.7567  11.00000  0.05    0.09 
Q126  1   1.1925  0.1531  0.9639  11.00000  0.05    0.09 
Q127  1   0.5054 -0.4055  0.0939  11.00000  0.05    0.09 
Q128  1   1.0393  0.1998  0.8205  11.00000  0.05    0.09 
Q129  1   0.7916  0.7757  0.5709  11.00000  0.05    0.08 
Q130  1   0.5535  0.4216  0.1826  11.00000  0.05    0.08 
Q131  1   0.4252 -0.6625  0.0677  11.00000  0.05    0.08 
Q132  1   0.5220  0.6891  0.5943  11.00000  0.05    0.08 
Q133  1   0.4645  0.1822  0.3180  11.00000  0.05    0.08 
Q134  1   1.0835  0.6485  0.6776  11.00000  0.05    0.08 
Q135  1   1.2121  0.1817  0.6645  11.00000  0.05    0.08 
Q136  1   0.5830  0.7063  0.5038  11.00000  0.05    0.08 
Q137  1   0.9840  0.5303  0.6068  11.00000  0.05    0.08 
Q138  1   0.5052  0.2174  0.1082  11.00000  0.05    0.08 
Q139  1   0.0913 -0.2779 -0.0605  11.00000  0.05    0.08 
Q140  1   0.3049 -0.1575  0.2885  11.00000  0.05    0.08 
Q141  1   1.1374  0.2377  1.0590  11.00000  0.05    0.08 
Q142  1   0.1071 -0.3768 -0.0115  11.00000  0.05    0.08 
Q143  1   0.1095 -0.0843 -0.2647  11.00000  0.05    0.08 
Q144  1   0.6033  0.1419  0.1654  11.00000  0.05    0.08 
Q145  1   0.4174  0.2997  0.2656  11.00000  0.05    0.08 
Q146  1   0.8381  0.1020  0.8113  11.00000  0.05    0.07 
Q147  1   0.5981  0.6162  0.6551  11.00000  0.05    0.07 
Q148  1   0.7921  0.1655  0.6145  11.00000  0.05    0.07 
Q149  1   0.5700  0.5670  0.4361  11.00000  0.05    0.07 
Q150  1   0.9476  0.2326  1.0273  11.00000  0.05    0.07 
;
_shelx_res_checksum              26518
_shelx_hkl_file
; 
 -11   3   1 647.308 171.016   3 
 -10  -4  -1 42.1594 50.6031   3 
 -10  -4   0 1310.41 224.620   3 
 -10  -4   1 36.1166 58.9922   3 
 -10  -4   2 125.298 56.6971   3 
 -10  -3  -2 192.636 78.4583   3 
 -10  -3  -1 103.614 75.8239   3 
 -10  -3   0 522.915 143.480   3 
 -10  -3   1 293.291 108.966   3 
 -10  -3   2 63.4047 73.4789   3 
 -10  -3   3 361.587 124.960   3 
 -10  -2  -2 46.2087 91.5127   3 
 -10  -2  -1 675.519 172.002   3 
 -10  -2   0 1706.72 253.583   3 
 -10  -2   1-50.2640 55.1530   3 
 -10  -2   2 461.286 127.795   3 
 -10  -2   3 23.4057 40.8195   3 
 -10  -2   4 435.597 134.810   3 
 -10  -1  -3 320.735 166.752   3 
 -10  -1  -2 304.486 110.616   3 
 -10  -1  -1 201.096 106.992   3 
 -10  -1   0 3783.37 390.163   3 
 -10  -1   1 3703.91 364.062   3 
 -10  -1   2 13.4293 50.8609   3 
 -10  -1   3 62.6277 63.5829   3 
 -10  -1   4-96.6818 86.0987   3 
 -10   0  -2 2417.86 351.611   3 
 -10   0  -1 260.922 117.514   3 
 -10   0   0 7038.75 533.125   3 
 -10   0   1 5275.35 436.225   3 
 -10   0   2 63.6465 56.3919   3 
 -10   0   3 595.373 145.691   3 
 -10   0   4-45.0775 59.3670   3 
 -10   0   5 398.428 128.697   3 
 -10   1  -2 1813.71 294.869   3 
 -10   1  -1 1137.69 231.910   3 
 -10   1   0 2825.25 333.817   3 
 -10   1   1 115.456 98.2694   3 
 -10   1   2 767.759 165.042   3 
 -10   1   3 25.6647 56.9343   3 
 -10   1   4 181.029 92.9698   3 
 -10   1   5 310.298 115.444   3 
 -10   2  -2 1258.53 239.808   3 
 -10   2  -1 130.002 95.5586   3 
 -10   2   0 286.505 110.177   3 
 -10   2   1 615.186 150.373   3 
 -10   2   2 530.622 137.243   3 
 -10   2   3-32.3395 63.9412   3 
 -10   2   4 226.918 95.5700   3 
 -10   2   5 1261.98 210.464   3 
 -10   3  -2 70.7746 73.9433   3 
 -10   3  -1 2114.73 293.555   3 
 -10   3   0 86.1666 42.3274   3 
 -10   3   1 23.1166 51.9453   3 
 -10   3   2 31.1946 47.1255   3 
 -10   3   3 228.177 90.8524   3 
 -10   3   4 263.798 90.6994   3 
 -10   3   5 721.298 159.433   3 
 -10   4  -2 18.1399 51.5392   3 
 -10   4  -1 1281.08 225.389   3 
 -10   4   0 172.251 81.3395   3 
 -10   4   1 16.5972 66.9405   3 
 -10   4   2 75.5415 69.0684   3 
 -10   4   3 350.564 117.922   3 
 -10   4   4 552.922 145.412   3 
 -10   4   5 714.213 179.839   3 
 -10   5  -3-35.7756 55.3987   5 
 -10   5  -2 126.279 70.1459   5 
 -10   5  -2 101.201 82.0977   3 
 -10   5  -1 1147.08 220.132   3 
 -10   5   0 322.201 114.354   3 
 -10   5   1 157.137 82.9566   3 
 -10   5   2 168.592 91.6543   3 
 -10   5   3 398.347 133.789   3 
 -10   5   4 2169.86 292.223   3 
 -10   5   5 543.571 153.019   3 
 -10   6  -4 320.353 113.001   5 
 -10   6  -3 243.736 72.4641   5 
 -10   6  -2 139.945 84.9986   3 
 -10   6  -1 198.799 98.8611   3 
 -10   6   0 251.482 124.257   3 
 -10   6   1 642.151 149.845   3 
 -10   6   2 88.4971 53.9098   3 
 -10   6   3 447.767 119.829   3 
 -10   6   4 176.361 111.869   3 
 -10   6   5 3507.13 379.772   3 
 -10   7  -2 106.549 86.4169   3 
 -10   7  -1 94.0623 61.2960   3 
 -10   7   0 86.0720 75.6043   3 
 -10   7   1-48.7845 71.7547   3 
 -10   7   2 302.672 102.771   3 
 -10   7   3 1419.94 237.159   3 
 -10   7   4 96.5277 80.2151   3 
 -10   7   5 6.69319 47.7477   3 
 -10   8  -2 278.131 127.719   3 
 -10   8  -1 1.55910 40.1088   3 
 -10   8   0 1996.44 272.996   3 
 -10   8   1 970.529 195.630   3 
  -9  -6   1 102.388 63.4035   3 
  -9  -6   2 296.623 114.362   3 
  -9  -6   3 1365.31 223.360   3 
  -9  -5  -3 901.852 199.954   3 
  -9  -5  -2 275.700 108.172   3 
  -9  -5  -1 275.486 87.7279   3 
  -9  -5   0 1579.47 224.530   3 
  -9  -5   1 710.178 149.459   3 
  -9  -5   2-87.7988 55.7631   3 
  -9  -5   3 117.961 92.9608   3 
  -9  -5   4-19.6817 55.0086   3 
  -9  -5   5 544.948 156.626   3 
  -9  -4  -4 168.213 146.007   3 
  -9  -4  -3 274.642 121.133   3 
  -9  -4  -2 747.134 188.432   3 
  -9  -4  -1 455.594 127.619   3 
  -9  -4   0 3905.90 351.487   3 
  -9  -4   1 46.3030 61.6479   3 
  -9  -4   2-28.9679 49.3807   3 
  -9  -4   3-42.1575 75.0260   3 
  -9  -4   4 811.504 183.195   3 
  -9  -4   5-2.93556 57.1161   4 
  -9  -4   5 136.365 84.2460   3 
  -9  -4   6-219.188 153.535   4 
  -9  -3  -3 373.042 139.164   3 
  -9  -3  -2 192.765 102.897   3 
  -9  -3  -1 438.232 136.062   3 
  -9  -3   0 347.952 111.013   3 
  -9  -3   1 50.7584 53.5181   3 
  -9  -3   2 26.1002 35.5743   3 
  -9  -3   3 1265.29 207.067   3 
  -9  -3   4 462.896 120.705   4 
  -9  -3   4 414.959 119.254   3 
  -9  -3   5 35.7512 60.7223   3 
  -9  -3   6 93.2829 42.9549   3 
  -9  -2  -2 895.196 207.734   3 
  -9  -2  -1 134.281 91.3662   3 
  -9  -2   0-20.2280 61.0364   3 
  -9  -2   1 35.0283 53.4552   3 
  -9  -2   2 565.276 136.861   3 
  -9  -2   3 373.893 113.551   3 
  -9  -2   4 2843.66 315.032   3 
  -9  -2   5 58.8309 45.7412   3 
  -9  -2   6 56.9686 55.0985   3 
  -9  -1  -2 3255.54 379.025   3 
  -9  -1  -1 249.583 104.103   3 
  -9  -1   0 183.526 85.5538   3 
  -9  -1   1 908.787 170.100   3 
  -9  -1   2 813.828 158.464   3 
  -9  -1   3 324.360 108.869   3 
  -9  -1   4 736.866 157.631   3 
  -9  -1   5 256.299 103.088   3 
  -9  -1   6 240.274 92.5805   3 
  -9   0  -1 7466.74 531.550   3 
  -9   0   0 100.378 68.9331   6 
  -9   0   0 169.931 84.4460   3 
  -9   0   1 1214.41 192.048   3 
  -9   0   2 144.986 72.9316   3 
  -9   0   3 431.962 122.223   3 
  -9   0   4 139.470 89.8124   3 
  -9   0   5 7.34461 46.7633   3 
  -9   0   6 360.482 123.267   3 
  -9   0   7 1317.60 227.019   3 
  -9   1  -1 9301.18 582.946   3 
  -9   1   0 303.731 110.829   3 
  -9   1   1-13.0455 16.5361   5 
  -9   1   1 82.8469 44.4011   3 
  -9   1   2 193.431 74.5164   3 
  -9   1   3 168.385 64.4115   4 
  -9   1   3 213.366 87.5610   3 
  -9   1   4 301.424 98.0386   3 
  -9   1   5 2549.93 292.913   3 
  -9   1   6 349.207 122.575   3 
  -9   1   7 210.537 104.823   3 
  -9   2  -1 4514.59 410.532   3 
  -9   2   0 664.510 147.033   3 
  -9   2   1 21.7577 48.2566   3 
  -9   2   1-13.2831 18.4987   5 
  -9   2   2 700.260 153.698   3 
  -9   2   2 543.780 86.8244   4 
  -9   2   3 315.092 81.0783   4 
  -9   2   3 533.548 132.536   3 
  -9   2   4 3468.40 332.348   3 
  -9   2   5 98.8697 78.5422   3 
  -9   2   6 188.273 93.6461   3 
  -9   2   7 167.220 86.5530   3 
  -9   3  -1 994.495 192.530   3 
  -9   3   0-3.82607 31.9249   5 
  -9   3   0 46.7998 50.6432   3 
  -9   3   1 36.4897 33.0142   5 
  -9   3   1 55.9620 56.6825   3 
  -9   3   2 95.1294 49.6008   4 
  -9   3   2 26.1575 46.6007   3 
  -9   3   3 15.6180 39.0358   3 
  -9   3   4 225.772 97.3226   3 
  -9   3   5 151.202 91.3569   3 
  -9   3   6 30.9232 47.7428   3 
  -9   3   7 149.369 81.3593   3 
  -9   4  -1 740.976 115.180   5 
  -9   4  -1 1166.34 200.649   3 
  -9   4   0 46.4639 24.4901   5 
  -9   4   0-49.3574 68.4620   3 
  -9   4   1 26.6253 69.0338   3 
  -9   4   1 49.7529 31.3585   5 
  -9   4   2 2953.19 306.062   3 
  -9   4   3 154.736 79.3795   3 
  -9   4   4 255.250 101.202   3 
  -9   4   5-9.89274 37.9761   3 
  -9   4   6-45.6625 77.4427   3 
  -9   4   7-31.6560 48.6859   3 
  -9   5  -2 1222.98 172.589   5 
  -9   5  -1 49.8457 41.3191   3 
  -9   5  -1 60.9539 45.6578   5 
  -9   5   0-48.0830 52.7056   3 
  -9   5   0-37.1997 46.9967   5 
  -9   5   1 13.9407 29.8398   5 
  -9   5   1-105.192 73.6476   3 
  -9   5   2-52.5348 49.0669   3 
  -9   5   3 3597.07 354.766   3 
  -9   5   4 99.5630 76.4787   3 
  -9   5   5 604.433 139.103   3 
  -9   5   6 1114.00 207.195   3 
  -9   5   7 146.120 97.8576   3 
  -9   6  -4 242.509 107.583   5 
  -9   6  -3 74.2319 60.9363   5 
  -9   6  -2-26.1779 41.5634   5 
  -9   6  -1 43.8094 36.2462   3 
  -9   6  -1-1.19866 39.0089   5 
  -9   6   0 603.312 118.458   5 
  -9   6   0 632.361 148.006   3 
  -9   6   1 2249.30 205.482   5 
  -9   6   1 2708.50 296.969   3 
  -9   6   2 768.746 164.882   3 
  -9   6   3 1613.83 235.195   3 
  -9   6   4 2991.29 319.245   3 
  -9   6   5 709.581 161.056   3 
  -9   6   6 147.241 85.3319   3 
  -9   6   7 69.9233 63.0452   3 
  -9   7  -4-57.4213 62.8351   5 
  -9   7  -3 496.618 123.047   5 
  -9   7  -2 185.778 85.0836   5 
  -9   7  -2 55.6239 74.6298   3 
  -9   7  -1 61.3744 47.5761   3 
  -9   7  -1 124.700 59.8081   5 
  -9   7   0 0.69026 45.8241   5 
  -9   7   0-26.9371 58.6014   3 
  -9   7   1 463.185 129.501   3 
  -9   7   1 323.556 91.9016   5 
  -9   7   2 546.172 136.050   3 
  -9   7   3 4025.16 363.347   3 
  -9   7   4 495.879 136.999   3 
  -9   7   5 536.783 126.894   3 
  -9   7   6 111.966 73.9505   3 
  -9   8  -3 432.919 135.650   5 
  -9   8  -2-19.1849 46.3487   3 
  -9   8  -2 50.6944 63.4677   5 
  -9   8  -1 364.927 120.035   5 
  -9   8  -1 602.320 146.259   3 
  -9   8   0-45.7149 79.4563   3 
  -9   8   0 158.320 86.3184   5 
  -9   8   1 337.852 105.463   3 
  -9   8   2 30.5080 45.0786   3 
  -9   9  -2 375.626 129.271   5 
  -9   9  -1 136.889 65.3267   5 
  -8  -6  -2-73.5299 65.7833   3 
  -8  -6  -1 237.722 96.2593   3 
  -8  -6   0 15.6329 30.6632   3 
  -8  -6   1 421.489 121.796   3 
  -8  -6   2 1011.09 172.526   3 
  -8  -6   3 7136.15 486.160   3 
  -8  -6   4 1628.75 235.243   3 
  -8  -6   4 1307.00 226.999   4 
  -8  -6   5 402.709 120.783   3 
  -8  -6   5 329.165 154.088   4 
  -8  -6   6 306.649 107.726   3 
  -8  -6   6-141.133 145.429   4 
  -8  -5  -4 2131.35 339.528   3 
  -8  -5  -3 184.000 98.1600   3 
  -8  -5  -2-15.7794 45.6059   3 
  -8  -5  -1 219.778 93.3563   3 
  -8  -5   0 3369.72 311.033   3 
  -8  -5   1 1893.74 232.772   3 
  -8  -5   2 2.19017 47.7485   4 
  -8  -5   2-34.8634 65.5428   3 
  -8  -5   3 1964.36 216.269   4 
  -8  -5   3 2611.40 289.671   3 
  -8  -5   4 1442.50 221.962   3 
  -8  -5   4 1320.25 208.591   4 
  -8  -5   5 221.004 102.814   3 
  -8  -5   5 136.248 92.8857   4 
  -8  -5   6 34.8670 99.5436   4 
  -8  -5   6-24.2906 75.9857   3 
  -8  -5   7 95.9708 108.370   4 
  -8  -4  -3 996.121 212.726   3 
  -8  -4  -2 1127.05 197.511   3 
  -8  -4  -1 142.709 83.8223   3 
  -8  -4   0 622.283 132.770   3 
  -8  -4   1-25.1500 29.7626   3 
  -8  -4   1 53.5496 38.4047   4 
  -8  -4   2 26.1580 31.7798   3 
  -8  -4   2 18.8330 28.3525   4 
  -8  -4   3 1485.50 195.915   4 
  -8  -4   3 2016.14 254.155   3 
  -8  -4   4 474.177 129.471   3 
  -8  -4   4 310.080 118.638   4 
  -8  -4   5 404.951 111.867   3 
  -8  -4   5 497.643 151.725   4 
  -8  -4   6 133.571 74.2959   3 
  -8  -4   7 799.352 184.486   3 
  -8  -3  -2 2277.80 282.721   3 
  -8  -3  -1 163.938 74.3849   3 
  -8  -3   0 16.7132 19.0735   4 
  -8  -3   0-85.6702 32.5256   5 
  -8  -3   0 62.2568 53.9031   6 
  -8  -3   0 82.5183 63.7435   3 
  -8  -3   1 233.434 56.3419   4 
  -8  -3   1 463.538 119.936   3 
  -8  -3   2 254.682 97.1613   3 
  -8  -3   2 156.434 49.1633   4 
  -8  -3   3 45.9267 35.6048   4 
  -8  -3   3 71.9857 55.8809   3 
  -8  -3   4 2853.61 306.122   3 
  -8  -3   5 792.816 167.119   3 
  -8  -3   6 124.822 82.3736   3 
  -8  -3   7 170.207 91.0449   3 
  -8  -2  -1 268.679 66.6077   5 
  -8  -2  -1 259.273 99.1234   3 
  -8  -2  -1 322.346 73.2424   6 
  -8  -2   0 532.046 46.5864   4 
  -8  -2   0 1055.16 143.981   6 
  -8  -2   0 1112.27 178.072   3 
  -8  -2   0 1055.81 121.286   5 
  -8  -2   0 467.752 45.1575   4 
  -8  -2   1 26.2569 21.4391   5 
  -8  -2   1 74.8282 31.8549   4 
  -8  -2   2 282.243 87.4846   3 
  -8  -2   2 217.173 39.7501   5 
  -8  -2   2 233.820 69.2503   4 
  -8  -2   3-15.1422 46.6749   3 
  -8  -2   4 360.623 109.480   3 
  -8  -2   5-53.1593 60.7722   3 
  -8  -2   6 549.669 133.022   3 
  -8  -2   7 231.437 106.690   3 
  -8  -1  -2 5573.16 354.517   5 
  -8  -1  -1 5207.17 403.327   3 
  -8  -1  -1 4610.61 277.642   5 
  -8  -1   0 47.5324 49.3705   6 
  -8  -1   0 99.4951 65.6308   3 
  -8  -1   0 72.4881 41.8007   5 
  -8  -1   1 292.296 73.3478   6 
  -8  -1   1 269.488 83.7804   3 
  -8  -1   1 218.242 43.9362   4 
  -8  -1   1 211.531 41.6416   5 
  -8  -1   1 262.448 53.3685   4 
  -8  -1   2 113.740 72.2050   3 
  -8  -1   3 186.572 86.7085   3 
  -8  -1   4 555.071 130.323   3 
  -8  -1   5 63.7698 67.0234   3 
  -8  -1   6 468.775 134.430   3 
  -8  -1   7 2200.94 279.079   3 
  -8  -1   8 3410.89 369.278   3 
  -8   0  -2 13761.1 595.145   5 
  -8   0  -1 17709.0 556.191   5 
  -8   0  -1 19665.6 788.150   3 
  -8   0   0-10.7511 35.6431   6 
  -8   0   0-14.5483 24.1795   5 
  -8   0   0-43.1437 52.8721   3 
  -8   0   1 1131.16 158.743   6 
  -8   0   1 1238.27 183.063   3 
  -8   0   1 849.130 73.9300   5 
  -8   0   1 841.988 82.0102   4 
  -8   0   2 438.462 76.3653   4 
  -8   0   2 579.204 125.044   3 
  -8   0   3 909.890 160.092   3 
  -8   0   4 381.678 105.859   3 
  -8   0   5 682.372 143.343   3 
  -8   0   6 132.459 75.3948   3 
  -8   0   7 872.171 172.116   3 
  -8   0   8 5126.18 442.983   3 
  -8   1   0 1906.01 166.821   5 
  -8   1   0 1436.29 78.5972   4 
  -8   1   1 281.840 82.4021   6 
  -8   1   1 103.937 24.9207   5 
  -8   1   1 236.797 46.4048   4 
  -8   1   1 143.546 52.5543   3 
  -8   1   2 637.685 92.3568   4 
  -8   1   2 658.978 136.921   3 
  -8   1   3 685.953 136.577   3 
  -8   1   3 472.578 85.4951   4 
  -8   1   4 147.628 68.1470   4 
  -8   1   4 185.101 84.2643   3 
  -8   1   5 1878.16 236.066   3 
  -8   1   6 1176.62 200.914   3 
  -8   1   7 674.880 153.222   3 
  -8   1   8 1249.14 217.049   3 
  -8   2   0 226.193 46.5878   4 
  -8   2   0 241.962 86.7734   3 
  -8   2   1 58.1667 24.0264   4 
  -8   2   1 53.9804 64.0518   3 
  -8   2   1 13.5856 16.9705   5 
  -8   2   2 21.7429 41.1656   3 
  -8   2   2 20.6156 25.5733   4 
  -8   2   3 3496.06 248.588   4 
  -8   2   3 4038.34 331.186   3 
  -8   2   4 1299.64 190.928   3 
  -8   2   5 233.193 91.4714   3 
  -8   2   6 173.419 86.7175   3 
  -8   2   7 148.391 86.2644   3 
  -8   2   8 120.064 77.9076   3 
  -8   3  -1 143.347 43.3406   4 
  -8   3   0 215.052 51.5283   5 
  -8   3   0 324.164 108.774   3 
  -8   3   0 290.107 54.6681   4 
  -8   3   1 597.645 130.753   3 
  -8   3   1 496.184 68.1112   5 
  -8   3   1 557.624 89.3629   4 
  -8   3   2 1574.90 204.288   3 
  -8   3   2 1653.14 170.271   4 
  -8   3   3 1412.56 196.753   3 
  -8   3   3 1543.08 171.258   4 
  -8   3   4 485.464 91.7016   2 
  -8   3   4 563.677 132.692   3 
  -8   3   5-42.5224 42.4778   2 
  -8   3   5 38.7425 48.7001   3 
  -8   3   6 170.042 82.9538   3 
  -8   3   7-73.9539 55.7070   3 
  -8   3   8 637.115 156.078   3 
  -8   4  -1 161.938 51.9369   4 
  -8   4  -1 106.579 51.6175   5 
  -8   4   0 757.131 109.113   4 
  -8   4   0 649.108 96.6803   5 
  -8   4   0 861.348 162.213   3 
  -8   4   1 285.462 55.0116   5 
  -8   4   1 449.034 95.8164   4 
  -8   4   1 388.790 115.264   3 
  -8   4   2 1009.57 144.195   4 
  -8   4   2 969.156 165.511   3 
  -8   4   2 764.065 81.5617   5 
  -8   4   3 500.258 124.201   3 
  -8   4   3 273.351 39.8528   5 
  -8   4   4 105.494 61.6416   3 
  -8   4   5 45.9029 56.0258   3 
  -8   4   6 142.576 92.5589   3 
  -8   4   7 926.610 186.644   3 
  -8   4   8 256.740 99.7400   3 
  -8   5  -2 1224.81 163.020   5 
  -8   5  -1 132.402 62.5223   3 
  -8   5  -1 163.506 58.2683   5 
  -8   5  -1 177.088 52.5868   4 
  -8   5   0 292.249 83.0242   4 
  -8   5   0 224.030 87.2420   3 
  -8   5   0 226.600 68.9682   5 
  -8   5   1 98.2094 74.4880   4 
  -8   5   1 80.5433 50.8776   5 
  -8   5   1 37.2423 56.7520   3 
  -8   5   2 4087.60 341.219   3 
  -8   5   2 3177.36 200.157   5 
  -8   5   3 421.986 112.018   3 
  -8   5   3 250.713 52.2058   5 
  -8   5   4 733.961 147.656   3 
  -8   5   4 507.467 68.6106   5 
  -8   5   5 123.970 63.1463   3 
  -8   5   6 92.9628 62.4669   3 
  -8   5   7 287.029 107.005   3 
  -8   5   8 68.4817 62.4802   3 
  -8   6  -4-66.8835 64.2626   5 
  -8   6  -3 83.6186 59.8034   5 
  -8   6  -2 64.1958 34.7498   5 
  -8   6  -1 1711.45 227.919   3 
  -8   6  -1 1346.79 171.177   5 
  -8   6   0 52.8524 41.0980   5 
  -8   6   0 240.784 100.836   3 
  -8   6   1 2484.68 217.379   5 
  -8   6   1 2934.14 295.017   3 
  -8   6   2 14.3685 47.6120   5 
  -8   6   2-15.9583 56.2849   3 
  -8   6   3 10504.4 543.878   3 
  -8   6   3 8497.47 350.717   5 
  -8   6   4 335.907 70.1724   5 
  -8   6   4 303.258 96.1288   3 
  -8   6   5 200.206 90.6458   3 
  -8   6   6 790.220 156.465   3 
  -8   6   7 199.347 96.7688   3 
  -8   6   8 126.943 84.3323   3 
  -8   7  -5 251.274 123.359   5 
  -8   7  -4 196.618 106.717   5 
  -8   7  -3 116.756 37.9295   5 
  -8   7  -2 50.4158 41.3530   5 
  -8   7  -1 138.109 76.0877   3 
  -8   7  -1 119.354 59.5917   5 
  -8   7   0 576.088 139.646   3 
  -8   7   0 592.818 123.399   5 
  -8   7   1 1945.07 209.794   5 
  -8   7   1 2235.09 252.760   3 
  -8   7   2 699.662 141.024   3 
  -8   7   2 763.247 135.196   5 
  -8   7   3 102.307 69.0534   3 
  -8   7   3 53.0080 26.1223   5 
  -8   7   4-55.5301 51.1865   3 
  -8   7   5 152.957 68.3411   3 
  -8   7   6 105.570 52.3332   3 
  -8   7   7 92.7306 68.4182   3 
  -8   8  -4 127.849 77.6585   5 
  -8   8  -3 168.109 94.4475   5 
  -8   8  -2 2632.17 293.133   3 
  -8   8  -2 1928.75 253.171   5 
  -8   8  -1 1889.99 241.156   3 
  -8   8  -1 1257.61 191.092   5 
  -8   8   0 891.474 165.968   3 
  -8   8   0 924.071 166.224   5 
  -8   8   1 354.942 113.647   3 
  -8   8   1 196.052 80.6773   5 
  -8   8   2 124.568 71.7090   3 
  -8   8   2 114.505 67.5034   5 
  -8   8   3 842.706 149.051   5 
  -8   8   3 876.664 150.067   3 
  -8   9  -3 591.082 144.608   5 
  -8   9  -2 1075.98 209.260   5 
  -8   9  -1 147.458 94.3611   5 
  -8   9   0 2.61021 34.6571   5 
  -8   9   1 651.341 149.237   5 
  -8   9   2 643.314 145.808   5 
  -8  10  -1 285.267 118.482   5 
  -8  10   0 322.517 120.364   5 
  -8  10   1 304.794 124.982   5 
  -8  10   2 52.8046 59.7240   5 
  -7  -8   3-17.6201 63.7427   4 
  -7  -8   4 596.319 173.427   4 
  -7  -7   2 76.9627 44.1553   4 
  -7  -7   3 11199.0 608.370   4 
  -7  -7   3 12292.4 588.655   3 
  -7  -7   4 723.950 153.336   3 
  -7  -7   4 752.912 209.031   4 
  -7  -7   5 229.076 119.903   4 
  -7  -6  -4 206.772 86.6261   3 
  -7  -6  -3 1006.83 172.331   3 
  -7  -6  -2 195.372 73.1697   3 
  -7  -6  -1 149.782 61.8395   3 
  -7  -6   0 66.9404 53.0642   4 
  -7  -6   0 14.4014 39.6040   3 
  -7  -6   1 951.077 142.109   4 
  -7  -6   1 1079.40 170.802   3 
  -7  -6   2 232.267 65.2959   4 
  -7  -6   2 283.823 101.538   3 
  -7  -6   3 4066.78 341.315   3 
  -7  -6   3 3595.17 330.827   4 
  -7  -6   4 942.023 168.762   3 
  -7  -6   4 1081.94 220.914   4 
  -7  -6   5 156.904 185.037   4 
  -7  -6   5 83.0438 62.0765   3 
  -7  -6   6 269.407 213.568   4 
  -7  -6   6 201.705 94.4786   3 
  -7  -6   7 81.6024 53.4380   3 
  -7  -5  -3 880.987 166.405   3 
  -7  -5  -2 1314.61 188.586   3 
  -7  -5  -1 923.699 111.238   4 
  -7  -5  -1 981.295 157.367   3 
  -7  -5   0 57.0455 49.8795   3 
  -7  -5   0 62.0390 48.2710   4 
  -7  -5   1-51.0634 49.7872   4 
  -7  -5   1 35.3794 32.6623   3 
  -7  -5   2 14.7274 32.5366   4 
  -7  -5   2 60.7408 59.4953   3 
  -7  -5   3 856.992 167.010   4 
  -7  -5   3 1018.71 172.937   3 
  -7  -5   4 892.162 172.925   3 
  -7  -5   4 844.017 184.159   4 
  -7  -5   5-254.347 132.907   4 
  -7  -5   5-67.2390 71.8915   3 
  -7  -5   6 6.91811 58.5668   3 
  -7  -5   6-185.390 181.697   4 
  -7  -5   7 1447.61 233.551   3 
  -7  -5   7 2037.60 377.479   4 
  -7  -4  -2 10904.1 551.550   3 
  -7  -4  -1-36.0979 48.9654   6 
  -7  -4  -1 45.4932 37.2979   3 
  -7  -4  -1 40.7701 18.3682   4 
  -7  -4   0 143.506 55.4735   3 
  -7  -4   0 125.004 51.4340   6 
  -7  -4   0 100.606 30.2169   5 
  -7  -4   0 125.571 49.2272   4 
  -7  -4   1 12.9432 27.6713   4 
  -7  -4   1 100.207 42.2002   5 
  -7  -4   1 77.4777 42.9835   3 
  -7  -4   2 2337.16 194.905   5 
  -7  -4   2 2605.47 263.703   3 
  -7  -4   2 1970.91 192.937   4 
  -7  -4   3 169.770 78.6539   4 
  -7  -4   3 36.8799 52.2493   3 
  -7  -4   4 24.1907 47.6311   3 
  -7  -4   4-19.0160 83.4756   4 
  -7  -4   5 69.9637 56.4939   3 
  -7  -4   6-29.8402 42.9071   3 
  -7  -4   7 1110.05 208.152   3 
  -7  -4   8-46.7559 42.7422   3 
  -7  -3  -2 158.647 47.3722   6 
  -7  -3  -1 285.457 90.5760   3 
  -7  -3  -1 210.043 60.1814   6 
  -7  -3  -1 183.924 65.1745   5 
  -7  -3  -1 112.641 28.0412   4 
  -7  -3   0 169.708 40.0864   4 
  -7  -3   0 183.894 60.2474   6 
  -7  -3   0 166.986 54.7041   5 
  -7  -3   0 183.258 68.2407   3 
  -7  -3   1 1962.78 210.763   6 
  -7  -3   1 1612.79 143.778   4 
  -7  -3   1 1861.20 213.526   3 
  -7  -3   1 1704.91 150.246   5 
  -7  -3   2 1733.29 136.742   5 
  -7  -3   2 1735.10 208.584   3 
  -7  -3   2 1462.22 164.948   4 
  -7  -3   3 456.213 109.091   3 
  -7  -3   4 167.434 70.8593   3 
  -7  -3   5 207.120 98.2086   3 
  -7  -3   6 255.418 107.443   3 
  -7  -3   7 589.590 155.535   3 
  -7  -3   8 131.224 62.7657   3 
  -7  -2  -2 521.146 71.5348   6 
  -7  -2  -2 801.849 138.939   5 
  -7  -2  -1 219.183 59.9311   6 
  -7  -2  -1 210.524 57.7009   5 
  -7  -2  -1 146.239 64.8009   3 
  -7  -2   0 648.310 62.7541   4 
  -7  -2   0 810.433 143.375   3 
  -7  -2   0 868.295 122.683   6 
  -7  -2   0 819.274 102.100   5 
  -7  -2   1 1680.69 136.713   4 
  -7  -2   1 1685.38 178.086   6 
  -7  -2   1 1930.46 213.475   3 
  -7  -2   1 1826.05 135.691   5 
  -7  -2   2 13520.9 313.634   5 
  -7  -2   2 12489.2 553.643   3 
  -7  -2   3 425.856 107.476   3 
  -7  -2   4 23.1117 27.0895   3 
  -7  -2   5 942.492 170.008   3 
  -7  -2   6 37.3110 35.0398   3 
  -7  -2   7 2458.71 287.464   3 
  -7  -2   8 1075.06 204.013   3 
  -7  -1  -2 64.8761 36.4803   5 
  -7  -1  -1 719.258 96.9441   6 
  -7  -1  -1 741.942 103.616   5 
  -7  -1   0 2023.50 148.592   5 
  -7  -1   0 1389.83 77.4234   4 
  -7  -1   0 1969.31 178.130   6 
  -7  -1   0 1206.73 69.8157   4 
  -7  -1   0 2429.56 241.281   3 
  -7  -1   1 166.160 40.4152   5 
  -7  -1   1 130.103 57.2134   3 
  -7  -1   1 130.816 39.6301   6 
  -7  -1   2 1971.47 203.986   6 
  -7  -1   2 2268.63 230.746   3 
  -7  -1   3 133.152 68.2904   3 
  -7  -1   4 601.218 119.657   3 
  -7  -1   5 833.497 146.832   3 
  -7  -1   6 169.114 95.5735   3 
  -7  -1   7 1758.99 234.214   3 
  -7  -1   8 5290.75 434.701   3 
  -7  -1   9-76.7578 63.0608   3 
  -7   0  -3 8851.39 415.170   1 
  -7   0  -3 10595.0 566.932   5 
  -7   0  -2 4.42474 35.9206   5 
  -7   0  -1 2498.38 203.670   5 
  -7   0  -1 2064.81 171.483   6 
  -7   0   0 820.994 56.3519   4 
  -7   0   0 1161.78 109.072   5 
  -7   0   0 1421.63 183.119   3 
  -7   0   0 1222.90 142.030   6 
  -7   0   1 1609.54 96.1370   5 
  -7   0   1 2251.91 229.700   3 
  -7   0   1 2019.96 191.883   6 
  -7   0   1 1827.77 124.791   4 
  -7   0   2 297.833 81.7773   6 
  -7   0   2 270.965 85.6422   3 
  -7   0   3 141.398 67.7713   3 
  -7   0   4 74.0018 47.7853   3 
  -7   0   5 1887.62 221.568   3 
  -7   0   6 8548.90 500.280   3 
  -7   0   7 505.219 129.035   3 
  -7   0   8 617.468 155.966   3 
  -7   0   9-77.7951 73.4600   3 
  -7   1  -5 58.9187 43.3178   1 
  -7   1  -4 1265.06 152.401   1 
  -7   1  -3 25825.7 661.511   1 
  -7   1   0 35.0177 17.6751   4 
  -7   1   0 76.7138 51.2541   3 
  -7   1   1 576.793 71.9534   4 
  -7   1   1 701.020 128.460   3 
  -7   1   1 463.058 50.7772   5 
  -7   1   1 653.654 116.875   6 
  -7   1   1 718.953 117.087   2 
  -7   1   2 132.279 64.3515   6 
  -7   1   2 164.241 68.2904   3 
  -7   1   2 97.8928 47.3214   2 
  -7   1   2 107.484 52.9489   4 
  -7   1   3 4534.34 330.794   3 
  -7   1   3 4444.58 274.001   4 
  -7   1   3 5055.34 314.000   2 
  -7   1   4 1307.84 167.479   4 
  -7   1   4 1257.12 176.469   3 
  -7   1   4 1439.57 174.313   2 
  -7   1   5-14.4062 55.6635   2 
  -7   1   5 39.8238 35.3237   3 
  -7   1   6 257.789 96.1285   3 
  -7   1   7 1038.09 178.733   3 
  -7   1   8 2442.53 289.451   3 
  -7   1   9 184.470 50.8001   3 
  -7   2  -1 19.2664 10.9478   4 
  -7   2   0 3751.30 177.521   4 
  -7   2   0 3804.68 301.210   3 
  -7   2   1 157.797 33.5451   5 
  -7   2   1 152.675 64.3764   3 
  -7   2   1 156.842 37.6391   4 
  -7   2   2 13246.3 467.766   2 
  -7   2   2 12885.4 540.189   3 
  -7   2   2 12152.7 408.394   4 
  -7   2   2 13628.3 567.471   6 
  -7   2   3 544.471 96.9735   2 
  -7   2   3 474.341 92.1245   4 
  -7   2   3 504.703 115.064   3 
  -7   2   4 301.889 75.5695   2 
  -7   2   4 213.502 77.1854   4 
  -7   2   4 376.187 106.686   3 
  -7   2   5 187.070 70.9187   2 
  -7   2   5 102.091 46.0335   3 
  -7   2   6 2775.64 286.466   3 
  -7   2   6 2983.35 256.364   2 
  -7   2   7 90.5325 52.4308   3 
  -7   2   8-137.351 84.6593   3 
  -7   2   9 23.3977 48.9306   3 
  -7   3  -1 191.353 44.1255   4 
  -7   3   0 16.5744 31.6667   4 
  -7   3   0-31.0717 33.7831   5 
  -7   3   0-59.0246 41.1086   3 
  -7   3   1 236.342 51.9589   5 
  -7   3   1 223.709 77.2329   3 
  -7   3   1 351.108 72.0080   4 
  -7   3   2 930.896 76.3236   5 
  -7   3   2 1427.63 186.028   3 
  -7   3   2 1415.30 148.080   4 
  -7   3   3 26.0779 10.4495   5 
  -7   3   3 22.5740 45.0920   4 
  -7   3   3 90.5053 63.0167   3 
  -7   3   3 25.5755 22.1389   2 
  -7   3   4 462.485 83.2027   2 
  -7   3   4 415.538 104.398   3 
  -7   3   5 145.216 51.5775   2 
  -7   3   5 64.9384 52.7145   3 
  -7   3   6 5347.50 303.292   2 
  -7   3   6 5040.61 381.151   3 
  -7   3   7 151.748 76.8847   3 
  -7   3   8 127.977 80.9641   3 
  -7   3   9 223.476 83.9341   3 
  -7   4  -1 44.7039 48.8765   4 
  -7   4  -1 19.9407 22.1626   5 
  -7   4   0 6906.89 410.829   3 
  -7   4   0 5753.45 283.114   5 
  -7   4   0 6766.44 320.941   4 
  -7   4   1 79.3647 50.4022   4 
  -7   4   1 23.1057 43.9990   5 
  -7   4   1-13.3578 30.5375   3 
  -7   4   2 773.220 125.197   4 
  -7   4   2 780.641 139.586   3 
  -7   4   2 626.351 82.0193   5 
  -7   4   3 7.77094 29.5154   3 
  -7   4   3 22.5567 20.0713   5 
  -7   4   4 144.987 56.7774   3 
  -7   4   5 21.2146 24.1427   2 
  -7   4   5 116.823 57.3958   3 
  -7   4   6 1912.88 233.375   3 
  -7   4   7 840.267 164.082   3 
  -7   4   8 89.9053 74.2464   3 
  -7   4   9 179.574 86.0415   3 
  -7   5  -2 193.065 73.2030   5 
  -7   5  -2 182.489 61.7560   4 
  -7   5  -1 48.1524 33.1173   5 
  -7   5  -1 101.706 63.2718   4 
  -7   5   0 628.571 133.142   3 
  -7   5   0 350.387 85.9327   5 
  -7   5   0 586.791 115.035   4 
  -7   5   1 7725.14 396.975   4 
  -7   5   1 8164.54 455.934   3 
  -7   5   1 6993.92 329.541   5 
  -7   5   2 336.799 72.3222   5 
  -7   5   2 356.965 100.474   3 
  -7   5   3 186.378 46.8565   5 
  -7   5   3 116.565 51.0208   3 
  -7   5   4 2523.95 169.818   5 
  -7   5   4 2842.88 264.627   3 
  -7   5   5 726.951 142.588   3 
  -7   5   6 201.050 77.0467   3 
  -7   5   7 1.78156 32.3568   3 
  -7   5   8 343.514 105.095   3 
  -7   5   9 153.879 83.6627   3 
  -7   6  -3 530.806 116.446   5 
  -7   6  -2 363.513 104.740   5 
  -7   6  -2 365.728 105.562   4 
  -7   6  -1 3088.56 265.406   4 
  -7   6  -1 2563.24 234.969   5 
  -7   6   0 1330.29 193.813   3 
  -7   6   0 1110.28 152.829   5 
  -7   6   1 928.918 140.400   5 
  -7   6   1 1184.03 176.520   3 
  -7   6   2 7322.56 426.889   3 
  -7   6   2 6715.74 347.124   5 
  -7   6   3 1345.87 146.671   5 
  -7   6   3 1524.35 192.000   3 
  -7   6   4 350.285 77.0442   5 
  -7   6   4 433.203 108.237   3 
  -7   6   5 309.240 83.2527   3 
  -7   6   5 352.392 75.6357   5 
  -7   6   6 137.507 57.9712   3 
  -7   6   7-81.4129 60.9834   3 
  -7   6   8 209.886 79.3739   3 
  -7   6   9 139.157 41.7627   3 
  -7   7  -6 93.7783 64.5125   5 
  -7   7  -5 712.686 164.491   5 
  -7   7  -4 176.976 86.5797   5 
  -7   7  -3 70.5420 48.1234   5 
  -7   7  -2 23.3470 71.4266   5 
  -7   7  -1 217.844 74.7108   5 
  -7   7  -1 436.641 113.154   3 
  -7   7   0 2120.26 244.580   3 
  -7   7   0 1571.34 192.926   5 
  -7   7   1 12539.2 539.045   5 
  -7   7   1 13642.3 578.626   3 
  -7   7   2 747.764 128.986   3 
  -7   7   2 939.917 143.520   5 
  -7   7   3 1345.55 175.679   3 
  -7   7   3 1186.43 156.675   5 
  -7   7   4 2.51047 32.3758   5 
  -7   7   4 99.0997 60.9969   3 
  -7   7   5-37.3404 51.9414   3 
  -7   7   5-16.4168 34.3439   5 
  -7   7   6 74.0699 45.0858   3 
  -7   7   7 538.384 118.584   3 
  -7   8  -5 997.297 197.197   5 
  -7   8  -4 139.038 112.677   5 
  -7   8  -3 434.752 137.403   5 
  -7   8  -2 87.7431 68.3784   5 
  -7   8  -1 346.576 103.892   5 
  -7   8  -1 587.813 124.474   3 
  -7   8   0 313.938 107.602   5 
  -7   8   0 257.944 84.5397   3 
  -7   8   1 2612.93 266.395   5 
  -7   8   1 2553.82 241.955   3 
  -7   8   2 1024.53 148.073   3 
  -7   8   2 1172.93 180.252   5 
  -7   8   3 315.990 97.1366   3 
  -7   8   3 165.798 71.7102   5 
  -7   8   4-74.9128 42.7087   3 
  -7   8   4 5.97578 32.8464   5 
  -7   8   5 136.104 62.9174   5 
  -7   9  -3 132.822 67.7274   5 
  -7   9  -2-9.95335 52.4938   5 
  -7   9  -1 469.887 129.271   5 
  -7   9   0 60.2750 76.6439   5 
  -7   9   1 1090.42 190.445   5 
  -7   9   2 435.468 122.124   5 
  -7   9   3 18.0792 62.8253   5 
  -7   9   4-21.0772 43.6928   5 
  -7  10  -1 18.5479 67.8764   5 
  -7  10   0 869.341 182.459   5 
  -7  10   1 71.4118 66.6171   5 
  -7  10   2 1309.00 219.183   5 
  -7  10   3 298.889 115.772   5 
  -7  10   4 458.521 117.875   5 
  -6  -9   1-47.2716 73.3969   4 
  -6  -9   2 128.354 78.7828   4 
  -6  -9   3 43.3221 102.430   4 
  -6  -8   0 64.8231 60.6914   4 
  -6  -8   1 201.743 67.0271   4 
  -6  -8   2 1567.34 226.340   4 
  -6  -8   3-32.8098 56.7277   4 
  -6  -8   4 15.5809 99.4152   4 
  -6  -8   5 13.7030 116.764   4 
  -6  -7  -1 535.852 112.886   4 
  -6  -7  -1 481.630 99.0234   3 
  -6  -7   0 638.615 116.656   3 
  -6  -7   0 630.482 124.375   4 
  -6  -7   1 2357.53 225.881   3 
  -6  -7   1 2125.69 228.516   4 
  -6  -7   2 2302.51 261.068   4 
  -6  -7   2 2516.88 239.591   3 
  -6  -7   3 417.472 127.991   4 
  -6  -7   3 290.716 78.8795   3 
  -6  -7   4 580.921 179.017   4 
  -6  -7   4 323.156 105.123   3 
  -6  -7   5 166.161 93.4865   4 
  -6  -7   5 12.8594 42.6939   3 
  -6  -7   6 486.602 255.249   4 
  -6  -7   6 529.286 146.922   3 
  -6  -7   7 20.0416 50.6815   3 
  -6  -6  -3 8.89053 39.7191   3 
  -6  -6  -2 101.646 63.6667   4 
  -6  -6  -2 54.3225 53.1085   3 
  -6  -6  -1 511.711 87.6085   4 
  -6  -6  -1 678.040 120.289   3 
  -6  -6   0 2811.18 250.875   3 
  -6  -6   0 2763.60 234.291   4 
  -6  -6   1 18714.2 644.857   3 
  -6  -6   1 17622.3 622.206   4 
  -6  -6   2 6999.00 408.980   3 
  -6  -6   2 6333.09 401.590   4 
  -6  -6   3 413.976 121.663   4 
  -6  -6   3 357.302 101.425   3 
  -6  -6   4 336.486 124.776   4 
  -6  -6   4 310.739 94.9529   3 
  -6  -6   5-69.8097 97.9203   4 
  -6  -6   5 128.995 79.9243   3 
  -6  -6   6 1429.45 327.738   4 
  -6  -6   6 780.400 168.468   3 
  -6  -6   7 34.7119 45.6959   3 
  -6  -6   7-283.240 210.104   4 
  -6  -6   8 96.9767 64.1415   3 
  -6  -5  -3 82.8262 33.0860   4 
  -6  -5  -2 4306.47 277.655   6 
  -6  -5  -2 4339.09 310.688   3 
  -6  -5  -2 3576.62 218.464   4 
  -6  -5  -1 5231.47 280.212   4 
  -6  -5  -1 6217.52 359.902   6 
  -6  -5  -1 5601.49 342.076   3 
  -6  -5   0 313.893 82.4363   4 
  -6  -5   0 368.032 86.1053   3 
  -6  -5   1 5451.29 348.083   3 
  -6  -5   1 4991.24 321.175   5 
  -6  -5   1 4508.23 287.720   4 
  -6  -5   2 1129.15 165.438   4 
  -6  -5   2 1151.51 162.353   3 
  -6  -5   2 1175.39 152.696   5 
  -6  -5   3 401.015 114.982   4 
  -6  -5   3 419.225 106.335   3 
  -6  -5   4 68.5820 63.4951   4 
  -6  -5   4 9.35571 37.5915   3 
  -6  -5   5 1702.32 324.687   4 
  -6  -5   5 1149.90 183.988   3 
  -6  -5   6 2.29942 38.7985   3 
  -6  -5   6-103.377 69.7394   4 
  -6  -5   7 2645.38 303.332   3 
  -6  -5   8 96.2506 66.7029   3 
  -6  -4  -3 152.633 43.4238   6 
  -6  -4  -2 764.124 105.694   6 
  -6  -4  -2 625.084 77.1668   4 
  -6  -4  -1 402.313 87.0000   6 
  -6  -4  -1 492.838 100.673   3 
  -6  -4  -1 308.300 55.3466   4 
  -6  -4  -1 447.516 96.7137   5 
  -6  -4   0 1084.70 152.118   6 
  -6  -4   0 1089.79 145.277   5 
  -6  -4   0 1008.31 144.562   3 
  -6  -4   0 862.129 106.648   4 
  -6  -4   1 3806.96 253.520   5 
  -6  -4   1 3295.11 226.860   4 
  -6  -4   1 3813.68 288.201   3 
  -6  -4   1 3876.75 288.216   6 
  -6  -4   2 678.546 122.091   4 
  -6  -4   2 701.312 101.223   5 
  -6  -4   2 778.837 134.332   3 
  -6  -4   3 622.508 121.381   3 
  -6  -4   3 459.432 129.204   4 
  -6  -4   4 316.969 99.9757   3 
  -6  -4   5 1334.67 193.810   3 
  -6  -4   6-3.86430 40.5624   3 
  -6  -4   7-90.9993 60.6534   3 
  -6  -4   8 211.893 91.1834   3 
  -6  -4   9-10.3829 81.8054   3 
  -6  -3  -3 0.71713 16.4970   6 
  -6  -3  -2 4.30135 10.6294   4 
  -6  -3  -2 40.8976 17.7753   6 
  -6  -3  -1 987.322 121.013   6 
  -6  -3  -1 925.037 83.9957   4 
  -6  -3  -1 1064.68 131.061   5 
  -6  -3  -1 1048.90 150.141   3 
  -6  -3   0 1242.34 136.426   5 
  -6  -3   0 1159.24 157.299   3 
  -6  -3   0 1165.14 108.832   4 
  -6  -3   0 1139.60 143.507   6 
  -6  -3   1 256.362 77.9258   6 
  -6  -3   1 266.525 67.3585   5 
  -6  -3   1 163.344 58.4883   3 
  -6  -3   1 243.959 62.8089   4 
  -6  -3   2 6494.60 378.022   6 
  -6  -3   2 6831.08 275.927   5 
  -6  -3   2 6777.23 387.183   3 
  -6  -3   2 6388.02 347.732   4 
  -6  -3   3 2071.23 220.084   3 
  -6  -3   4 576.932 118.302   3 
  -6  -3   5 383.798 106.640   3 
  -6  -3   6 175.731 82.7882   3 
  -6  -3   7 815.940 167.623   3 
  -6  -3   8 73.0598 35.2564   3 
  -6  -3   9 256.145 134.392   3 
  -6  -2  -3 1236.31 169.682   5 
  -6  -2  -3 673.595 57.7013   6 
  -6  -2  -2 2191.30 197.407   5 
  -6  -2  -2 1873.41 128.708   6 
  -6  -2  -1 47.8679 12.8425   4 
  -6  -2  -1 97.9621 40.0977   6 
  -6  -2  -1 94.4550 42.7212   5 
  -6  -2   0-6.11252 27.8057   3 
  -6  -2   0 65.5958 29.9820   5 
  -6  -2   0 28.7204 17.1011   4 
  -6  -2   0 54.4222 29.0524   6 
  -6  -2   1 580.729 79.5842   5 
  -6  -2   1 415.137 78.7037   6 
  -6  -2   1 514.619 98.5333   3 
  -6  -2   1 459.253 74.2447   4 
  -6  -2   2 1863.39 193.673   6 
  -6  -2   2 2155.42 212.491   3 
  -6  -2   2 2326.28 131.110   5 
  -6  -2   3 469.150 99.6464   3 
  -6  -2   4 593.095 122.493   3 
  -6  -2   5-7.05212 34.4971   3 
  -6  -2   6-64.0447 51.7258   3 
  -6  -2   7 56.9938 36.7526   3 
  -6  -2   8 149.391 84.2022   3 
  -6  -2   9 933.193 188.620   3 
  -6  -1  -3 7165.15 369.053   1 
  -6  -1  -3 7997.91 447.825   5 
  -6  -1  -2 32.7763 39.4221   1 
  -6  -1  -2 38.7273 48.3172   5 
  -6  -1  -2 29.6537 24.3308   6 
  -6  -1  -1 2126.54 192.606   1 
  -6  -1  -1 1668.73 132.798   6 
  -6  -1  -1 1757.27 191.180   2 
  -6  -1  -1 1662.00 150.266   5 
  -6  -1   0 131.101 44.5031   5 
  -6  -1   0 111.538 25.9645   4 
  -6  -1   0 213.192 73.2675   2 
  -6  -1   0 148.948 59.7096   3 
  -6  -1   0 111.442 42.3844   6 
  -6  -1   1 1149.17 91.2772   5 
  -6  -1   1 1134.06 133.500   6 
  -6  -1   1 1525.41 174.388   3 
  -6  -1   1 1236.24 157.879   2 
  -6  -1   2 1309.83 161.336   3 
  -6  -1   2 1114.23 140.869   6 
  -6  -1   2 1022.40 62.9618   5 
  -6  -1   2 1358.11 167.147   2 
  -6  -1   3-33.0150 47.9251   3 
  -6  -1   3 56.2586 39.6794   2 
  -6  -1   4 1138.38 157.699   3 
  -6  -1   5 10911.8 515.540   3 
  -6  -1   6 6761.57 423.382   3 
  -6  -1   7 230.134 86.3975   3 
  -6  -1   8 135.808 67.8670   3 
  -6  -1   9 65.0879 45.4526   3 
  -6   0  -5 7128.10 367.640   1 
  -6   0  -4 14079.1 491.504   1 
  -6   0  -3 41612.1 816.924   1 
  -6   0  -2 375.697 85.8628   1 
  -6   0  -1 1428.27 127.591   6 
  -6   0  -1 1549.91 153.822   5 
  -6   0   0 1247.61 146.859   2 
  -6   0   0 1363.25 166.389   3 
  -6   0   0 1127.05 101.636   5 
  -6   0   0 1187.71 129.642   6 
  -6   0   0 891.562 62.6743   4 
  -6   0   1 1539.71 155.722   6 
  -6   0   1 1295.96 80.2999   5 
  -6   0   1 1698.33 170.383   2 
  -6   0   1 1944.64 193.468   3 
  -6   0   2 158.868 60.0087   6 
  -6   0   2 226.098 71.2928   2 
  -6   0   2 100.259 50.5641   3 
  -6   0   3 1530.19 169.532   2 
  -6   0   3 1263.99 155.792   6 
  -6   0   3 1471.22 176.879   3 
  -6   0   4 1411.65 161.167   2 
  -6   0   4 1185.12 159.208   3 
  -6   0   5 4102.67 289.736   2 
  -6   0   5 4030.98 309.666   3 
  -6   0   6 28469.6 855.570   3 
  -6   0   7 326.715 96.3300   3 
  -6   0   8 41.8716 42.1284   3 
  -6   0   9 156.487 82.0842   3 
  -6   1  -6 679.366 113.054   1 
  -6   1  -5 2384.54 200.052   1 
  -6   1  -4 2614.34 196.115   1 
  -6   1  -3 825.683 109.776   1 
  -6   1   0 2051.45 177.867   6 
  -6   1   0 2145.72 206.009   3 
  -6   1   0 1741.50 101.047   4 
  -6   1   1 1756.44 181.345   3 
  -6   1   1 1676.65 161.750   2 
  -6   1   1 1774.02 175.423   6 
  -6   1   1 1439.33 111.911   4 
  -6   1   2 294.018 80.4891   2 
  -6   1   2 215.103 67.5640   3 
  -6   1   2 130.907 41.6992   4 
  -6   1   2 217.672 66.3945   6 
  -6   1   3 7184.68 349.443   4 
  -6   1   3 7332.81 378.783   6 
  -6   1   3 7638.72 393.822   3 
  -6   1   4 4561.87 284.256   2 
  -6   1   4 3876.53 289.430   3 
  -6   1   5 1561.06 170.586   2 
  -6   1   5 1597.33 197.000   3 
  -6   1   6 2824.13 242.848   2 
  -6   1   6 2638.16 259.080   3 
  -6   1   7 184.081 71.1705   3 
  -6   1   8-2.73307 49.6095   3 
  -6   1   9 342.318 116.059   3 
  -6   1  10 561.142 146.568   3 
  -6   2  -6 1451.92 158.566   1 
  -6   2  -5 691.652 99.7891   1 
  -6   2  -4 829.509 101.476   1 
  -6   2  -1 337.019 51.4673   4 
  -6   2   0 1268.35 102.963   4 
  -6   2   0 1323.68 162.803   3 
  -6   2   1 9390.58 426.449   3 
  -6   2   1 8568.69 237.528   5 
  -6   2   1 8947.40 309.177   4 
  -6   2   2 2922.21 195.836   2 
  -6   2   2 3153.80 250.531   6 
  -6   2   2 3161.35 247.810   3 
  -6   2   2 2866.74 191.533   4 
  -6   2   3 1151.91 158.208   6 
  -6   2   3 1183.52 156.857   3 
  -6   2   3 1251.46 130.153   2 
  -6   2   3 1105.46 136.897   4 
  -6   2   4 2975.72 253.218   4 
  -6   2   4 3618.00 231.373   2 
  -6   2   4 3259.95 264.699   3 
  -6   2   5 869.938 150.566   3 
  -6   2   5 894.874 123.191   2 
  -6   2   6 139.024 54.1308   3 
  -6   2   6 126.170 46.4525   2 
  -6   2   7 726.564 144.702   3 
  -6   2   8 311.013 113.291   3 
  -6   2   9 426.269 124.419   3 
  -6   2  10 808.358 183.017   3 
  -6   3  -5 5810.71 243.389   1 
  -6   3  -1 1614.64 128.867   4 
  -6   3   0 7161.56 380.020   3 
  -6   3   0 7008.79 281.960   4 
  -6   3   0 6226.33 254.221   5 
  -6   3   1 3501.55 181.071   5 
  -6   3   1 3845.92 274.603   3 
  -6   3   1 3581.25 217.848   4 
  -6   3   2 1011.16 146.173   3 
  -6   3   2 925.431 80.8369   5 
  -6   3   2 997.742 125.462   4 
  -6   3   3-11.3604 22.0827   3 
  -6   3   3 20.1910 43.2417   4 
  -6   3   3 0.72201 15.7312   5 
  -6   3   3 29.1413 32.0055   2 
  -6   3   4 79.3220 50.3535   3 
  -6   3   4 69.6060 57.8438   4 
  -6   3   4 57.3584 22.4817   2 
  -6   3   5 105.827 65.7023   3 
  -6   3   5 86.1602 38.0865   2 
  -6   3   6 1036.08 166.212   3 
  -6   3   6 1111.90 131.519   2 
  -6   3   7 126.304 52.3627   2 
  -6   3   7 29.7190 29.6770   3 
  -6   3   8-99.7846 71.2209   3 
  -6   3   9 296.253 105.650   3 
  -6   3  10 52.9162 59.3220   3 
  -6   4  -2 1773.65 159.330   4 
  -6   4  -1 709.691 103.528   5 
  -6   4  -1 903.061 113.695   4 
  -6   4   0 2432.06 225.922   3 
  -6   4   0 2138.53 170.120   5 
  -6   4   0 2301.99 184.767   4 
  -6   4   1 41.1959 29.2651   5 
  -6   4   1 59.9336 25.3331   3 
  -6   4   2 167.044 69.4949   4 
  -6   4   2 167.694 70.2450   3 
  -6   4   2 67.2516 28.8502   5 
  -6   4   3 57.8719 52.2783   3 
  -6   4   3 24.0444 23.8889   5 
  -6   4   3 24.5047 39.4941   4 
  -6   4   4 35.6220 16.5166   5 
  -6   4   4 48.0836 41.4039   3 
  -6   4   5 2782.83 159.411   2 
  -6   4   5 2747.54 251.330   3 
  -6   4   6 247.725 84.5362   3 
  -6   4   6 294.273 59.4795   2 
  -6   4   7-74.3320 70.2758   3 
  -6   4   8-15.1053 40.6642   3 
  -6   4   9 517.941 137.563   3 
  -6   4  10 945.262 202.656   3 
  -6   5  -2 197.147 69.6387   5 
  -6   5  -2 263.559 68.0030   4 
  -6   5  -1 302.014 80.4745   4 
  -6   5  -1 236.182 69.6474   5 
  -6   5   0 4820.05 280.434   5 
  -6   5   0 5692.87 354.734   3 
  -6   5   0 5225.05 310.147   4 
  -6   5   1 292.753 73.2527   3 
  -6   5   1 306.710 80.5504   4 
  -6   5   1 346.150 76.7644   5 
  -6   5   2 263.500 93.6924   4 
  -6   5   2 243.189 61.0633   5 
  -6   5   2 224.284 65.4988   3 
  -6   5   3 26.5032 29.1057   3 
  -6   5   3 62.9232 37.3955   5 
  -6   5   4 383.012 92.0382   3 
  -6   5   4 300.065 65.2882   5 
  -6   5   5 742.993 107.037   5 
  -6   5   5 963.874 142.336   3 
  -6   5   6 94.7119 59.6971   3 
  -6   5   7 215.163 78.5503   3 
  -6   5   8 1033.65 181.308   3 
  -6   5   9 1452.84 230.791   3 
  -6   5  10 46.5859 72.3081   3 
  -6   6  -3 1693.23 207.926   5 
  -6   6  -2-32.3722 44.8604   5 
  -6   6  -2-76.4688 76.9724   4 
  -6   6  -1 9824.56 461.128   4 
  -6   6  -1 8161.29 413.785   5 
  -6   6   0 1064.53 167.599   4 
  -6   6   0 1015.62 165.051   3 
  -6   6   0 611.491 118.330   5 
  -6   6   1 25710.9 730.425   3 
  -6   6   1 24042.3 682.471   5 
  -6   6   2 2017.06 192.658   5 
  -6   6   2 2028.43 199.835   3 
  -6   6   3 121.573 56.5199   5 
  -6   6   3 129.296 50.9275   3 
  -6   6   4 1942.00 181.264   5 
  -6   6   4 2008.91 201.247   3 
  -6   6   5 813.576 124.868   5 
  -6   6   5 823.013 131.179   3 
  -6   6   6 192.357 71.0542   3 
  -6   6   7 526.255 120.011   3 
  -6   6   8 275.278 95.4915   3 
  -6   6   9 851.682 169.627   3 
  -6   7  -6 216.495 94.4659   5 
  -6   7  -5-109.690 99.3970   5 
  -6   7  -4 364.057 111.273   5 
  -6   7  -3 6.79144 47.6928   5 
  -6   7  -2 254.067 89.1317   5 
  -6   7  -1 1473.50 191.394   3 
  -6   7  -1 1344.86 181.897   5 
  -6   7   0 4203.69 302.620   3 
  -6   7   0 3280.46 270.929   5 
  -6   7   1 26.7090 42.3251   5 
  -6   7   1 86.9870 47.5696   3 
  -6   7   2 56.0973 42.0245   5 
  -6   7   2 47.1318 32.0294   3 
  -6   7   3 116.020 63.0680   5 
  -6   7   3 119.954 50.4994   3 
  -6   7   4 183.056 67.6530   5 
  -6   7   4 175.014 67.4544   3 
  -6   7   5 100.644 54.7647   3 
  -6   7   5 25.5443 32.1076   5 
  -6   7   6 673.980 134.816   5 
  -6   7   6 733.206 136.698   3 
  -6   7   7 60.9647 58.9834   3 
  -6   7   8 1903.98 246.706   3 
  -6   8  -5 87.0439 59.9233   5 
  -6   8  -4 2006.96 279.620   5 
  -6   8  -3 2131.32 268.551   5 
  -6   8  -2 1349.93 209.071   5 
  -6   8  -1 403.953 97.7056   3 
  -6   8  -1 416.516 112.259   5 
  -6   8   0 87.5696 52.1276   3 
  -6   8   0 89.6701 51.0813   5 
  -6   8   1 1020.04 136.631   3 
  -6   8   1 965.768 159.641   5 
  -6   8   2 626.891 102.188   3 
  -6   8   2 743.832 152.558   5 
  -6   8   3 2134.33 235.667   5 
  -6   8   3 2259.98 195.974   3 
  -6   8   4 788.881 119.406   3 
  -6   8   4 829.527 144.354   5 
  -6   8   5 2290.76 241.063   5 
  -6   8   6 1470.84 203.740   5 
  -6   9  -4 1423.33 252.865   5 
  -6   9  -3 165.337 80.6025   5 
  -6   9  -2 123.623 83.2878   5 
  -6   9  -1 1124.34 190.257   5 
  -6   9   0 1099.91 186.170   5 
  -6   9   1-88.2841 80.3498   5 
  -6   9   2 72.5200 60.0727   5 
  -6   9   3 369.179 117.499   5 
  -6   9   4 127.265 73.8057   5 
  -6   9   5 2672.64 272.485   5 
  -6   9   6 69.8871 53.6092   5 
  -6  10  -2 589.430 150.366   5 
  -6  10  -1 258.774 81.8016   5 
  -6  10   0 87.4652 60.0459   5 
  -6  10   1 288.471 114.645   5 
  -6  10   2 191.384 109.377   5 
  -6  10   3-11.7967 47.5007   5 
  -6  10   4 111.642 93.3146   5 
  -6  10   5 185.090 72.8108   5 
  -5  -9  -1 96.5784 74.5237   4 
  -5  -9   0 1.37458 40.2460   4 
  -5  -9   1 134.239 80.6074   4 
  -5  -9   2 181.013 115.141   4 
  -5  -9   3 307.662 121.775   4 
  -5  -9   4 20.2775 98.2963   4 
  -5  -8  -3 95.1537 61.1509   4 
  -5  -8  -2-4.79869 43.5025   4 
  -5  -8  -1 196.912 98.9586   4 
  -5  -8   0 181.675 74.6175   4 
  -5  -8   1 55.7907 36.9032   4 
  -5  -8   2 1712.55 242.044   4 
  -5  -8   3 283.267 111.028   4 
  -5  -8   4 978.245 230.250   4 
  -5  -8   5 432.425 183.741   4 
  -5  -7  -4 958.589 153.990   4 
  -5  -7  -3 45.4702 43.0978   3 
  -5  -7  -3 14.0354 45.0772   4 
  -5  -7  -2 185.296 68.6500   3 
  -5  -7  -2 214.696 83.2339   4 
  -5  -7  -1 3019.25 268.243   4 
  -5  -7  -1 2624.92 207.465   3 
  -5  -7   0 168.805 58.8356   3 
  -5  -7   0 127.314 74.4202   4 
  -5  -7   1 19062.9 575.508   3 
  -5  -7   1 18469.5 687.668   4 
  -5  -7   2 2234.57 256.045   4 
  -5  -7   2 2377.34 216.359   3 
  -5  -7   3 384.936 103.429   3 
  -5  -7   3 283.575 118.124   4 
  -5  -7   4 230.553 115.528   4 
  -5  -7   4 333.744 88.0156   3 
  -5  -7   5-90.3742 138.580   4 
  -5  -7   5 72.9791 48.1696   3 
  -5  -7   6 832.988 272.837   4 
  -5  -7   6 233.357 97.9360   3 
  -5  -7   7 247.458 116.749   3 
  -5  -7   7 150.038 94.1178   4 
  -5  -7   8 280.093 101.226   3 
  -5  -6  -3 444.255 94.3369   4 
  -5  -6  -2 247.704 72.1174   3 
  -5  -6  -2 244.691 70.9034   6 
  -5  -6  -2 188.981 55.8941   4 
  -5  -6  -1 105.804 48.4898   4 
  -5  -6  -1 5.24454 34.7692   3 
  -5  -6   0 614.255 123.834   4 
  -5  -6   0 677.649 109.788   3 
  -5  -6   1 10318.0 483.266   4 
  -5  -6   1 10393.3 435.280   3 
  -5  -6   2 3705.10 270.035   3 
  -5  -6   2 3456.56 300.929   4 
  -5  -6   3 182.324 78.1255   3 
  -5  -6   3 205.078 93.3332   4 
  -5  -6   4 709.154 188.365   4 
  -5  -6   4 589.555 126.879   3 
  -5  -6   5 841.379 238.838   4 
  -5  -6   5 513.287 130.059   3 
  -5  -6   6 359.499 128.627   4 
  -5  -6   6 230.396 100.065   3 
  -5  -6   7 804.415 170.541   3 
  -5  -6   7 1028.55 267.890   4 
  -5  -6   8 1464.99 242.452   3 
  -5  -6   9 291.478 126.960   3 
  -5  -5  -3 803.387 111.485   6 
  -5  -5  -3 712.309 109.013   4 
  -5  -5  -2 137.959 53.8683   6 
  -5  -5  -2 134.108 55.8500   3 
  -5  -5  -2 115.809 35.1911   4 
  -5  -5  -1 16.9919 31.2926   3 
  -5  -5  -1 44.7334 32.4925   6 
  -5  -5  -1 9.10950 27.9430   4 
  -5  -5   0 69.3259 43.4282   6 
  -5  -5   0-2.71229 32.0758   3 
  -5  -5   0 8.72674 29.4510   4 
  -5  -5   0 8.64962 32.7047   5 
  -5  -5   1 1013.01 141.783   4 
  -5  -5   1 1158.91 153.385   5 
  -5  -5   1 1010.50 135.642   3 
  -5  -5   2 1807.94 187.953   5 
  -5  -5   2 1833.26 204.422   4 
  -5  -5   2 2064.01 199.660   3 
  -5  -5   3 93.6065 66.9733   4 
  -5  -5   3 191.379 63.9566   3 
  -5  -5   4 632.220 155.142   4 
  -5  -5   4 405.669 102.246   3 
  -5  -5   5 1454.95 194.770   3 
  -5  -5   5 1883.00 315.138   4 
  -5  -5   6 464.421 119.271   3 
  -5  -5   7 249.657 109.950   3 
  -5  -5   8 127.987 90.3833   3 
  -5  -5   9 83.6316 80.8768   3 
  -5  -4  -5 91.6152 16.7463   6 
  -5  -4  -4 17611.3 378.992   6 
  -5  -4  -3 509.983 84.4001   4 
  -5  -4  -3 587.141 82.2404   6 
  -5  -4  -2 303.361 74.5024   6 
  -5  -4  -2 264.207 56.0992   4 
  -5  -4  -2 260.128 81.1999   5 
  -5  -4  -1 80.8562 24.9900   6 
  -5  -4  -1 110.705 58.4484   5 
  -5  -4  -1 85.0435 37.0938   4 
  -5  -4  -1 61.7210 34.4011   3 
  -5  -4   0 5546.05 318.186   3 
  -5  -4   0 5981.69 327.480   5 
  -5  -4   0 5402.66 272.270   4 
  -5  -4   0 5987.00 319.339   6 
  -5  -4   1 899.430 130.243   3 
  -5  -4   1 913.928 132.336   6 
  -5  -4   1 799.002 116.067   4 
  -5  -4   1 985.957 126.256   5 
  -5  -4   2 324.620 84.3798   3 
  -5  -4   2 198.916 60.2914   5 
  -5  -4   2 192.851 67.0973   4 
  -5  -4   2 355.103 94.3918   6 
  -5  -4   3 31.9830 52.9828   4 
  -5  -4   3 118.416 51.8911   3 
  -5  -4   4 188.467 68.5480   3 
  -5  -4   5 6990.65 416.564   3 
  -5  -4   6 133.970 70.6647   3 
  -5  -4   7 173.851 88.5085   3 
  -5  -4   8 21.0774 58.8568   3 
  -5  -4   9-11.9059 47.5838   3 
  -5  -3  -4 34.6020 10.8310   6 
  -5  -3  -3 83.2232 29.2094   6 
  -5  -3  -3 121.775 62.5205   5 
  -5  -3  -2 518.553 70.5782   6 
  -5  -3  -2 568.468 101.633   5 
  -5  -3  -2 553.980 64.5692   4 
  -5  -3  -1 1544.38 181.691   1 
  -5  -3  -1 1429.50 167.866   2 
  -5  -3  -1 1577.70 140.524   6 
  -5  -3  -1 1576.25 157.269   5 
  -5  -3  -1 1419.41 110.070   4 
  -5  -3   0 5219.71 319.496   2 
  -5  -3   0 5228.22 301.408   3 
  -5  -3   0 5132.31 231.215   4 
  -5  -3   0 5459.82 279.057   6 
  -5  -3   0 5797.42 289.781   5 
  -5  -3   0 5417.48 327.648   1 
  -5  -3   1 2868.74 224.180   3 
  -5  -3   1 2807.55 184.448   5 
  -5  -3   1 2777.83 234.258   2 
  -5  -3   1 2656.37 184.927   4 
  -5  -3   1 2778.70 212.754   6 
  -5  -3   2 261.272 79.5889   3 
  -5  -3   2 283.756 72.4841   6 
  -5  -3   2 224.809 53.9216   5 
  -5  -3   2 234.837 72.8703   2 
  -5  -3   2 160.669 46.3026   4 
  -5  -3   3 1407.59 172.965   6 
  -5  -3   3 1785.87 187.419   3 
  -5  -3   4 592.046 109.067   3 
  -5  -3   5 1399.20 182.021   3 
  -5  -3   6 129.310 53.7303   3 
  -5  -3   7 289.570 105.468   3 
  -5  -3   8 5.10395 39.0796   3 
  -5  -3   9 94.8581 76.9175   3 
  -5  -2  -3 267.101 86.8866   5 
  -5  -2  -3 362.784 96.2315   1 
  -5  -2  -3 213.109 30.2902   6 
  -5  -2  -2 580.185 62.2027   6 
  -5  -2  -2 580.997 110.249   1 
  -5  -2  -2 597.226 103.050   5 
  -5  -2  -1 5412.36 313.857   2 
  -5  -2  -1 5798.65 317.210   1 
  -5  -2  -1 5369.73 266.173   5 
  -5  -2  -1 5420.80 229.824   6 
  -5  -2   0 46576.8 728.866   5 
  -5  -2   0 49024.4 938.579   2 
  -5  -2   0 48718.6 894.498   3 
  -5  -2   0 48910.0 916.120   1 
  -5  -2   0 48927.7 770.250   6 
  -5  -2   1 4380.08 250.332   6 
  -5  -2   1 4336.99 268.360   3 
  -5  -2   1 4232.57 194.267   5 
  -5  -2   1 4589.95 288.111   2 
  -5  -2   2 378.799 87.6517   6 
  -5  -2   2 344.586 53.7178   5 
  -5  -2   2 356.281 73.2851   3 
  -5  -2   2 391.910 89.2534   2 
  -5  -2   3 4666.86 292.386   6 
  -5  -2   3 4639.91 289.891   3 
  -5  -2   3 4444.51 289.864   2 
  -5  -2   4-5.20548 33.9101   3 
  -5  -2   4 17.1388 32.6663   6 
  -5  -2   5 5427.81 345.365   3 
  -5  -2   6 2139.77 231.499   3 
  -5  -2   7 113.100 54.1611   3 
  -5  -2   8 820.203 162.355   3 
  -5  -2   9 966.725 183.831   3 
  -5  -2  10 220.374 97.3897   3 
  -5  -1  -5 2093.60 201.188   1 
  -5  -1  -4 1656.01 171.848   1 
  -5  -1  -4 1892.81 247.500   5 
  -5  -1  -3 114.529 52.2676   5 
  -5  -1  -3 150.703 56.7620   1 
  -5  -1  -2 5621.83 309.611   5 
  -5  -1  -2 5952.79 303.504   1 
  -5  -1  -1-8.91327 16.4042   5 
  -5  -1  -1-15.8625 30.1830   2 
  -5  -1  -1-38.9763 44.2362   1 
  -5  -1  -1 8.35932 15.3447   6 
  -5  -1   0 4800.25 279.028   3 
  -5  -1   0 4076.48 187.926   5 
  -5  -1   0 5089.35 287.581   2 
  -5  -1   0 4401.75 215.289   6 
  -5  -1   0 4256.50 146.296   4 
  -5  -1   1 80.9247 33.0187   3 
  -5  -1   1 58.2938 40.1324   2 
  -5  -1   1 54.9903 21.5882   5 
  -5  -1   1 130.741 48.6865   6 
  -5  -1   2 3326.52 234.562   3 
  -5  -1   2 3298.96 225.580   6 
  -5  -1   2 3497.73 239.349   2 
  -5  -1   2 2967.63 107.680   5 
  -5  -1   3 426.994 85.3834   3 
  -5  -1   3 302.381 69.9515   6 
  -5  -1   3 414.962 86.6486   2 
  -5  -1   4 2985.01 237.840   6 
  -5  -1   4 2922.33 239.551   3 
  -5  -1   5 2727.01 240.945   3 
  -5  -1   6 17908.2 654.347   3 
  -5  -1   7-7.74263 38.2385   3 
  -5  -1   8 252.849 94.5022   3 
  -5  -1   9 191.649 89.0514   3 
  -5  -1  10 336.081 120.738   3 
  -5   0  -5 5330.71 293.311   1 
  -5   0  -4 192.475 69.1353   1 
  -5   0  -3 1066.33 127.353   1 
  -5   0  -2 4573.22 243.001   1 
  -5   0  -1 9124.01 336.730   1 
  -5   0  -1 8050.66 269.871   6 
  -5   0   0 4056.30 180.231   5 
  -5   0   0 4476.53 252.903   2 
  -5   0   0 4188.44 213.948   6 
  -5   0   1 1028.84 128.703   3 
  -5   0   1 1125.42 128.630   2 
  -5   0   1 770.840 57.6370   5 
  -5   0   1 1055.86 118.197   6 
  -5   0   2 192.305 56.4976   2 
  -5   0   2 291.490 70.8157   3 
  -5   0   2 197.663 53.5621   6 
  -5   0   3 946.197 123.378   6 
  -5   0   3 960.571 130.596   3 
  -5   0   3 1006.24 126.955   2 
  -5   0   4 21840.0 638.367   3 
  -5   0   4 21831.1 587.305   2 
  -5   0   4 22582.8 651.655   6 
  -5   0   5 1028.75 148.214   3 
  -5   0   6 1896.07 207.918   3 
  -5   0   7 13.6197 40.6413   3 
  -5   0   8 573.590 128.187   3 
  -5   0   9-76.6097 61.8885   3 
  -5   0  10 254.622 109.473   3 
  -5   1  -5 44064.0 791.110   1 
  -5   1  -4 25.9136 27.7396   1 
  -5   1  -3 200.316 51.8869   1 
  -5   1  -2 2296.24 157.290   1 
  -5   1  -1 1082.11 53.7791   4 
  -5   1   0 216.512 52.7352   6 
  -5   1   0 196.764 54.4793   2 
  -5   1   0 158.713 30.3149   4 
  -5   1   1 7509.21 303.940   2 
  -5   1   1 7598.03 346.915   3 
  -5   1   1 6999.87 239.858   4 
  -5   1   1 7623.71 324.306   6 
  -5   1   2 4122.34 251.133   6 
  -5   1   2 4019.33 255.728   3 
  -5   1   2 4425.96 238.539   2 
  -5   1   2 4139.59 223.069   4 
  -5   1   3 131.189 43.3950   2 
  -5   1   3 171.215 66.0364   3 
  -5   1   3 73.0018 45.4242   6 
  -5   1   4 1620.14 173.651   6 
  -5   1   4 1776.05 181.458   3 
  -5   1   4 1831.49 160.251   2 
  -5   1   5 1515.05 175.535   3 
  -5   1   6 7997.00 429.041   3 
  -5   1   7 242.586 86.0831   3 
  -5   1   8 220.628 87.7994   3 
  -5   1   9 26.3235 45.1567   3 
  -5   1  10 2134.01 288.360   3 
  -5   2  -6 118.164 49.6015   1 
  -5   2  -5 2171.58 161.871   1 
  -5   2  -4 263.834 56.3465   1 
  -5   2  -3 37.6294 31.7343   1 
  -5   2  -1 80.9512 26.7609   4 
  -5   2   0 45474.6 606.283   4 
  -5   2   1 5918.57 242.356   4 
  -5   2   1 6029.93 259.554   2 
  -5   2   1 6035.95 194.990   5 
  -5   2   1 6870.63 330.338   3 
  -5   2   2 134.797 40.9134   2 
  -5   2   2 236.329 69.4180   6 
  -5   2   2 116.882 41.7932   4 
  -5   2   2 100.224 22.0896   5 
  -5   2   2 118.818 45.9526   3 
  -5   2   3 58.8774 49.6879   6 
  -5   2   3-10.8532 21.4961   2 
  -5   2   3 81.4511 55.1234   4 
  -5   2   3 35.1346 42.7797   3 
  -5   2   4 9567.18 428.113   6 
  -5   2   4 9561.61 432.529   4 
  -5   2   4 10573.8 359.241   2 
  -5   2   4 9750.41 421.536   3 
  -5   2   5 427.957 102.025   4 
  -5   2   5 584.284 109.869   3 
  -5   2   6 20.1152 43.0383   3 
  -5   2   7 123.416 64.1975   3 
  -5   2   8 190.810 83.7318   3 
  -5   2   9 989.660 188.666   3 
  -5   2  10 532.910 141.858   3 
  -5   3  -6 476.257 74.7819   1 
  -5   3  -6 391.768 85.2483   7 
  -5   3  -5 1265.61 103.616   1 
  -5   3  -4 138.140 35.3887   1 
  -5   3  -1 1400.36 115.024   4 
  -5   3   0 3711.69 203.222   4 
  -5   3   0 3377.24 185.739   5 
  -5   3   1 334.782 55.7192   5 
  -5   3   1 378.907 80.2956   3 
  -5   3   1 276.865 62.8413   4 
  -5   3   2 1817.45 172.240   3 
  -5   3   2 1649.87 109.406   5 
  -5   3   2 1719.98 159.165   4 
  -5   3   3 26.7572 21.1862   2 
  -5   3   3-2.67987 18.4603   5 
  -5   3   3 7.81029 23.9654   3 
  -5   3   3 10.5237 34.8187   4 
  -5   3   4 17680.2 566.891   3 
  -5   3   4 17886.5 403.345   2 
  -5   3   4 17675.0 605.486   4 
  -5   3   5 549.484 108.298   3 
  -5   3   5 567.970 79.1430   2 
  -5   3   6 412.922 96.7980   3 
  -5   3   7 232.662 76.5390   3 
  -5   3   8 248.587 88.7114   3 
  -5   3   9 322.517 115.326   3 
  -5   3  10 94.7714 70.5590   3 
  -5   4  -6 877.248 132.987   7 
  -5   4  -2 9831.32 374.436   4 
  -5   4  -1-20.7456 21.8051   4 
  -5   4  -1-45.9122 32.8272   5 
  -5   4   0 834.239 110.172   5 
  -5   4   0 921.110 113.756   4 
  -5   4   1-4.16733 32.6225   3 
  -5   4   1 26.1088 32.7462   4 
  -5   4   1 51.2316 30.8452   5 
  -5   4   2 148.971 40.7130   5 
  -5   4   2 135.436 44.7007   4 
  -5   4   2 167.987 47.4152   3 
  -5   4   3 550.160 80.1904   5 
  -5   4   3 515.959 101.540   4 
  -5   4   3 654.828 103.901   3 
  -5   4   4 5179.75 307.467   3 
  -5   4   4 4413.46 235.873   5 
  -5   4   4 5185.55 348.310   4 
  -5   4   5 8379.63 409.455   3 
  -5   4   5 7072.93 220.571   2 
  -5   4   6 83.9322 28.7772   2 
  -5   4   6 34.0174 39.1291   3 
  -5   4   7 529.599 126.801   3 
  -5   4   8 123.185 72.9939   3 
  -5   4   9 1122.56 199.864   3 
  -5   4  10 137.567 88.4767   3 
  -5   5  -2 191.997 56.8723   4 
  -5   5  -2 189.357 50.5380   5 
  -5   5  -1 10744.7 424.747   5 
  -5   5  -1 11614.7 445.689   4 
  -5   5   0 1085.51 132.683   4 
  -5   5   0 956.373 122.117   5 
  -5   5   0 1115.40 143.284   3 
  -5   5   1 461.271 92.0568   4 
  -5   5   1 478.525 94.0217   3 
  -5   5   1 357.447 71.8896   5 
  -5   5   2 4602.83 304.142   4 
  -5   5   2 4725.84 260.806   5 
  -5   5   2 4812.94 277.788   3 
  -5   5   3 2850.36 212.994   3 
  -5   5   3 2567.30 190.358   5 
  -5   5   3 2769.76 251.783   4 
  -5   5   4 132.866 58.6970   3 
  -5   5   4 73.4461 49.4062   5 
  -5   5   5 40.9852 32.1203   3 
  -5   5   5 99.1146 51.7255   5 
  -5   5   6 599.001 117.880   3 
  -5   5   7 580.437 126.054   3 
  -5   5   8 1786.69 234.374   3 
  -5   5   9 447.056 147.105   3 
  -5   5  10 3421.11 362.232   3 
  -5   6  -4 36.8491 41.1964   5 
  -5   6  -3 1204.80 180.100   5 
  -5   6  -2 817.769 136.648   4 
  -5   6  -2 892.975 144.421   5 
  -5   6  -1 307.199 96.0301   4 
  -5   6  -1 158.862 69.5754   5 
  -5   6   0 9782.50 427.443   5 
  -5   6   0 10639.7 476.939   4 
  -5   6   1 1928.53 191.907   5 
  -5   6   1 1879.37 173.449   3 
  -5   6   1 1809.58 192.126   4 
  -5   6   2 1284.89 157.852   5 
  -5   6   2 1154.83 131.167   3 
  -5   6   3 2085.22 197.364   5 
  -5   6   3 2317.57 187.819   3 
  -5   6   4-16.2157 28.2199   3 
  -5   6   4 69.1656 39.1009   5 
  -5   6   5 65.3865 42.1197   5 
  -5   6   5 99.2964 43.4477   3 
  -5   6   6 237.058 69.5857   3 
  -5   6   7 658.567 127.745   3 
  -5   6   8 2235.28 260.931   3 
  -5   6   9 3355.56 342.882   3 
  -5   6  10 66.2342 56.0687   3 
  -5   7  -7 100.130 59.1795   5 
  -5   7  -6 108.135 69.1913   5 
  -5   7  -5 90.4828 65.8492   5 
  -5   7  -4-11.3728 58.0208   5 
  -5   7  -3 134.849 68.0816   5 
  -5   7  -2 953.295 149.025   5 
  -5   7  -1 24195.0 741.821   5 
  -5   7   0 2756.27 244.859   5 
  -5   7   0 2810.88 228.340   3 
  -5   7   1 2193.06 227.157   5 
  -5   7   1 2044.62 174.601   3 
  -5   7   2 841.823 144.115   5 
  -5   7   2 675.205 95.1235   3 
  -5   7   3 300.126 69.1717   3 
  -5   7   3 490.264 106.620   5 
  -5   7   4 160.835 56.3914   3 
  -5   7   4 167.815 64.4669   5 
  -5   7   5 407.223 107.769   5 
  -5   7   5 440.888 99.3873   3 
  -5   7   6 439.781 110.538   5 
  -5   7   6 577.585 121.243   3 
  -5   7   7 895.894 159.494   3 
  -5   7   8 206.544 89.3899   3 
  -5   8  -6 132.607 94.8822   5 
  -5   8  -5 127.862 99.5943   5 
  -5   8  -4 216.511 110.201   5 
  -5   8  -3 658.706 162.234   5 
  -5   8  -2-29.9621 35.2358   5 
  -5   8  -1 2792.31 270.516   5 
  -5   8  -1 3798.53 266.715   3 
  -5   8   0 624.742 100.552   3 
  -5   8   0 672.005 134.010   5 
  -5   8   1 1022.92 168.536   5 
  -5   8   1 895.991 106.405   3 
  -5   8   2 93.5813 55.3288   5 
  -5   8   2-1.74812 20.7348   3 
  -5   8   3 72.1228 64.0976   5 
  -5   8   3 79.2886 48.7836   3 
  -5   8   4 307.745 91.9658   5 
  -5   8   4 337.062 72.5492   3 
  -5   8   5 398.815 102.315   5 
  -5   8   6-18.7697 50.9856   5 
  -5   9  -5 279.143 125.527   5 
  -5   9  -4 10.2473 62.8093   5 
  -5   9  -3 633.592 157.586   5 
  -5   9  -2 64.6869 66.4351   5 
  -5   9  -1 1061.64 180.532   5 
  -5   9   0 388.671 113.580   5 
  -5   9   1 1.41876 48.2323   5 
  -5   9   2 450.855 114.141   5 
  -5   9   3 181.198 58.6354   5 
  -5   9   4 100.468 71.4495   5 
  -5   9   5 342.419 115.304   5 
  -5   9   6 55.1200 63.9060   5 
  -5  10  -3 72.3108 52.3030   5 
  -5  10  -2 1332.81 228.572   5 
  -5  10  -1 191.237 113.383   5 
  -5  10   0 1508.54 228.901   5 
  -5  10   1 274.377 103.670   5 
  -5  10   2 1011.22 196.189   5 
  -5  10   3 180.887 90.3045   5 
  -5  10   4 64.4838 69.2675   5 
  -5  10   5 489.389 149.407   5 
  -5  10   6-39.9033 51.0306   5 
  -5  10   6-86.2621 77.7048   7 
  -4 -10  -2 74.6252 68.5300   4 
  -4 -10  -1 622.016 166.773   4 
  -4 -10   0 728.879 177.340   4 
  -4 -10   1-142.013 118.910   4 
  -4 -10   2-48.1691 85.9657   4 
  -4  -9  -4 2242.43 269.569   4 
  -4  -9  -3 1352.92 205.573   4 
  -4  -9  -2 48.3046 57.3775   4 
  -4  -9  -1 133.637 41.7799   4 
  -4  -9   0-24.8239 42.9107   4 
  -4  -9   1 1024.60 198.532   4 
  -4  -9   2 57.3798 64.0144   4 
  -4  -9   3 412.815 144.034   4 
  -4  -9   4 291.535 129.713   4 
  -4  -8  -4 157.992 71.6188   4 
  -4  -8  -3 29.4346 38.3091   4 
  -4  -8  -2-43.3263 65.8296   4 
  -4  -8  -1 195.819 52.7630   4 
  -4  -8   0 3057.01 301.004   4 
  -4  -8   1 345.433 124.536   4 
  -4  -8   2 95.3227 83.2510   4 
  -4  -8   3 137.057 97.8778   4 
  -4  -8   4 766.422 201.777   4 
  -4  -8   5 1328.50 264.294   4 
  -4  -8   6 15.6339 89.7686   4 
  -4  -7  -4 367.100 95.1563   4 
  -4  -7  -3 743.417 105.921   3 
  -4  -7  -3 923.098 152.165   4 
  -4  -7  -2 197.053 52.4443   3 
  -4  -7  -2 268.381 85.3842   4 
  -4  -7  -1 7607.83 303.430   3 
  -4  -7  -1 8529.68 448.923   4 
  -4  -7   0 3634.02 215.591   3 
  -4  -7   0 4151.09 326.628   4 
  -4  -7   1 1565.53 149.891   3 
  -4  -7   1 1536.22 200.748   4 
  -4  -7   2 391.797 116.481   4 
  -4  -7   2 329.230 78.9631   3 
  -4  -7   3 304.175 81.4962   3 
  -4  -7   3 243.974 99.9546   4 
  -4  -7   4 876.374 140.777   3 
  -4  -7   4 1203.03 235.214   4 
  -4  -7   5 246.564 125.144   4 
  -4  -7   5 136.276 57.2624   3 
  -4  -7   6 45.4411 95.6323   4 
  -4  -7   6 88.6864 74.7838   3 
  -4  -7   7-11.0631 101.558   4 
  -4  -7   7 27.1793 41.4470   3 
  -4  -7   8 101.236 75.2941   3 
  -4  -7   9 888.621 206.210   3 
  -4  -6  -4 563.077 98.8114   6 
  -4  -6  -4 512.168 90.3715   3 
  -4  -6  -4 637.987 120.803   4 
  -4  -6  -3 77.2066 38.6585   6 
  -4  -6  -3 110.277 45.6148   4 
  -4  -6  -2 5541.34 283.375   3 
  -4  -6  -2 5783.34 310.163   6 
  -4  -6  -2 5635.42 324.389   4 
  -4  -6  -1 36690.5 712.430   3 
  -4  -6  -1 38581.7 873.577   4 
  -4  -6  -1 37976.0 847.575   6 
  -4  -6   0 25046.6 592.295   3 
  -4  -6   0 25253.2 728.068   4 
  -4  -6   1 338.898 89.1098   4 
  -4  -6   1 305.066 80.3680   3 
  -4  -6   2 391.007 107.404   4 
  -4  -6   2 281.829 72.9994   3 
  -4  -6   3 13.0501 30.0488   3 
  -4  -6   3 86.5861 68.7997   4 
  -4  -6   4 993.342 205.521   4 
  -4  -6   4 883.338 145.122   3 
  -4  -6   5-23.7313 90.7415   4 
  -4  -6   5 161.126 71.6698   3 
  -4  -6   6-62.4119 100.988   4 
  -4  -6   6 86.5980 57.5803   3 
  -4  -6   7 306.734 78.4158   4 
  -4  -6   7 188.257 76.0259   3 
  -4  -6   8 1616.97 296.823   4 
  -4  -6   8 1866.45 273.681   3 
  -4  -6   9 903.184 211.950   3 
  -4  -5  -5 28.6968 26.9323   6 
  -4  -5  -4 2681.77 183.961   6 
  -4  -5  -3 8112.02 329.268   6 
  -4  -5  -3 8109.99 357.640   4 
  -4  -5  -2 1288.61 135.353   6 
  -4  -5  -2 1329.80 143.808   4 
  -4  -5  -1 6251.12 300.658   3 
  -4  -5  -1 5928.08 306.111   4 
  -4  -5  -1 6944.31 389.509   5 
  -4  -5  -1 6301.90 352.072   2 
  -4  -5  -1 6345.88 322.402   6 
  -4  -5   0 255.325 72.2145   6 
  -4  -5   0 183.717 74.0125   2 
  -4  -5   0 273.030 68.7483   5 
  -4  -5   0 232.583 61.5468   3 
  -4  -5   0 151.657 49.0057   4 
  -4  -5   1 574.361 105.312   4 
  -4  -5   1 605.741 113.034   6 
  -4  -5   1 724.371 121.551   5 
  -4  -5   1 664.194 98.9254   3 
  -4  -5   2 21.4265 25.6780   3 
  -4  -5   2 63.9242 59.3221   4 
  -4  -5   2-46.3162 37.3962   5 
  -4  -5   3 4778.40 297.677   3 
  -4  -5   3 4493.92 367.369   4 
  -4  -5   4 64.0059 51.0915   3 
  -4  -5   4 11.6921 59.4918   4 
  -4  -5   5 11348.9 522.757   3 
  -4  -5   5 12359.2 739.628   4 
  -4  -5   6 527.147 128.862   3 
  -4  -5   7 17.8794 47.2185   3 
  -4  -5   8-111.056 67.8078   3 
  -4  -5   9 513.296 157.983   3 
  -4  -4  -6 29.7017 12.9178   6 
  -4  -4  -5 721.007 77.2565   6 
  -4  -4  -5 674.396 72.5910   6 
  -4  -4  -4 64.3990 23.0230   6 
  -4  -4  -3 884.094 107.065   4 
  -4  -4  -3 1016.87 105.072   6 
  -4  -4  -2 5547.47 328.204   5 
  -4  -4  -2 5304.07 309.634   2 
  -4  -4  -2 5363.13 252.055   4 
  -4  -4  -2 5916.47 272.832   6 
  -4  -4  -1 6813.10 310.124   6 
  -4  -4  -1 6098.39 272.181   4 
  -4  -4  -1 6901.07 386.877   1 
  -4  -4  -1 6415.47 344.310   2 
  -4  -4  -1 6327.74 298.934   3 
  -4  -4  -1 7047.21 358.341   5 
  -4  -4   0 2172.04 181.526   6 
  -4  -4   0 2429.72 203.248   5 
  -4  -4   0 2059.03 200.689   1 
  -4  -4   0 2178.91 175.345   3 
  -4  -4   0 2151.99 201.171   2 
  -4  -4   0 2120.74 173.472   4 
  -4  -4   1 135.575 59.4699   2 
  -4  -4   1 215.192 72.5479   6 
  -4  -4   1 104.623 38.7779   4 
  -4  -4   1 132.183 54.2375   1 
  -4  -4   1 163.056 53.1091   5 
  -4  -4   1 214.569 59.9674   3 
  -4  -4   2 322.176 69.3933   3 
  -4  -4   2 283.737 78.9316   4 
  -4  -4   2 310.542 73.5378   5 
  -4  -4   2 346.705 90.2866   6 
  -4  -4   2 293.499 81.0584   2 
  -4  -4   3 1004.55 133.448   3 
  -4  -4   3 940.485 164.100   4 
  -4  -4   3 989.847 140.334   6 
  -4  -4   4 4.69500 40.9911   3 
  -4  -4   5 60.9921 35.8079   3 
  -4  -4   6 273.305 101.738   3 
  -4  -4   7 15.3070 34.9207   3 
  -4  -4   8 508.383 138.775   3 
  -4  -4   9 740.413 183.454   3 
  -4  -4  10 432.551 152.344   3 
  -4  -3  -4 96.7498 24.9101   6 
  -4  -3  -3 2941.21 258.182   1 
  -4  -3  -3 3301.32 156.985   6 
  -4  -3  -3 3043.20 243.030   5 
  -4  -3  -2 3099.27 171.211   6 
  -4  -3  -2 2859.01 239.564   1 
  -4  -3  -2 2690.11 215.975   2 
  -4  -3  -2 2780.48 220.645   5 
  -4  -3  -2 2809.82 154.269   4 
  -4  -3  -1 297.426 75.9074   2 
  -4  -3  -1 236.000 50.9654   6 
  -4  -3  -1 215.527 52.3336   5 
  -4  -3  -1 230.129 70.6495   1 
  -4  -3  -1 212.757 45.0073   4 
  -4  -3   0 14537.5 450.172   3 
  -4  -3   0 15494.2 457.047   5 
  -4  -3   0 14274.2 383.793   4 
  -4  -3   0 14311.0 421.802   6 
  -4  -3   0 13820.3 474.868   1 
  -4  -3   0 14271.6 487.132   2 
  -4  -3   1 6086.37 267.469   5 
  -4  -3   1 5508.85 262.581   4 
  -4  -3   1 5835.63 285.710   6 
  -4  -3   1 6064.92 289.880   3 
  -4  -3   1 5939.61 312.759   2 
  -4  -3   2 1569.12 149.027   3 
  -4  -3   2 1479.81 162.921   2 
  -4  -3   2 1439.97 149.058   6 
  -4  -3   2 1332.16 128.549   5 
  -4  -3   3 1800.40 174.433   6 
  -4  -3   3 1789.64 171.363   3 
  -4  -3   4 41.1083 42.2626   3 
  -4  -3   4 66.2300 37.7485   6 
  -4  -3   5 4285.97 300.725   3 
  -4  -3   6-10.8329 28.8915   3 
  -4  -3   7 47.8120 38.7499   3 
  -4  -3   8 70.9941 63.2433   3 
  -4  -3   9 2309.57 302.170   3 
  -4  -3  10 53.1582 50.0797   3 
  -4  -2  -4 2465.04 245.840   5 
  -4  -2  -3 609.001 106.634   1 
  -4  -2  -3 602.593 104.486   5 
  -4  -2  -3 471.117 42.7980   6 
  -4  -2  -2 1511.32 95.0807   6 
  -4  -2  -2 1316.75 151.569   1 
  -4  -2  -2 1308.82 84.0293   4 
  -4  -2  -2 1359.18 138.051   5 
  -4  -2  -1 1414.53 144.401   1 
  -4  -2  -1 1302.22 85.3056   4 
  -4  -2  -1 1437.76 150.963   2 
  -4  -2  -1 1363.87 105.314   6 
  -4  -2  -1 1293.40 123.171   5 
  -4  -2   0 7950.73 281.967   6 
  -4  -2   0 8408.38 295.347   5 
  -4  -2   0 8360.25 354.222   2 
  -4  -2   0 7972.71 322.508   3 
  -4  -2   0 7918.61 331.733   1 
  -4  -2   0 7773.74 236.949   4 
  -4  -2   1 5031.45 244.259   6 
  -4  -2   1 5113.11 260.759   3 
  -4  -2   1 5289.69 208.630   5 
  -4  -2   1 5297.70 280.635   2 
  -4  -2   2 119.709 45.0417   6 
  -4  -2   2 115.775 39.2011   3 
  -4  -2   2 180.611 59.2556   2 
  -4  -2   2 155.861 39.3727   5 
  -4  -2   3 449.032 87.9726   6 
  -4  -2   3 503.337 87.0986   3 
  -4  -2   4 96.4730 41.8339   6 
  -4  -2   4 188.404 62.1121   3 
  -4  -2   5 2773.33 240.022   6 
  -4  -2   5 2674.59 231.633   3 
  -4  -2   6 122.408 54.7136   3 
  -4  -2   7 2209.14 242.009   3 
  -4  -2   8 56.8082 57.3026   3 
  -4  -2   9 891.705 181.865   3 
  -4  -2  10 122.887 72.0347   3 
  -4  -1  -3 8099.91 414.172   5 
  -4  -1  -3 7039.05 322.655   1 
  -4  -1  -2 994.293 114.344   1 
  -4  -1  -2 1046.67 129.861   5 
  -4  -1  -2 888.604 59.4923   6 
  -4  -1  -1 3793.06 217.346   1 
  -4  -1  -1 3408.35 186.322   5 
  -4  -1  -1 3853.28 227.421   2 
  -4  -1  -1 3825.75 155.062   6 
  -4  -1   0 1270.68 107.343   6 
  -4  -1   0 1243.08 97.9503   5 
  -4  -1   0 1388.61 134.071   1 
  -4  -1   0 1448.14 143.434   2 
  -4  -1   1 687.445 89.2172   6 
  -4  -1   1 726.617 62.6841   5 
  -4  -1   1 758.134 102.646   3 
  -4  -1   1 812.876 106.112   2 
  -4  -1   2 4608.06 251.667   3 
  -4  -1   2 4746.83 247.976   2 
  -4  -1   2 4785.29 252.394   6 
  -4  -1   3 33913.8 705.271   3 
  -4  -1   4 13293.5 471.239   3 
  -4  -1   5 402.561 89.3989   3 
  -4  -1   5 339.052 83.0202   6 
  -4  -1   6 90.8081 58.1519   3 
  -4  -1   7-28.5006 29.3180   3 
  -4  -1   8 313.819 109.847   3 
  -4  -1   9 42.0855 54.9648   3 
  -4  -1  10 19.0269 47.1878   3 
  -4   0  -3 220.269 55.7666   1 
  -4   0  -2 1420.24 123.422   1 
  -4   0  -1 4121.59 167.751   6 
  -4   0  -1 4340.64 207.585   1 
  -4   0   0 419.218 60.9171   6 
  -4   0   0 447.378 75.8343   2 
  -4   0   1 873.633 96.0786   6 
  -4   0   1 670.254 47.6247   5 
  -4   0   1 1078.09 119.406   3 
  -4   0   1 1065.12 113.047   2 
  -4   0   2 10253.4 353.172   6 
  -4   0   2 10897.8 377.739   3 
  -4   0   2 11165.3 358.307   2 
  -4   0   3 16552.5 481.054   3 
  -4   0   4 157426. 1593.64   3 
  -4   0   5 551.764 101.410   3 
  -4   0   5 489.865 93.6438   6 
  -4   0   6 237.799 78.4177   3 
  -4   0   7 566.516 120.255   3 
  -4   0   8 871.487 159.482   3 
  -4   0   9 575.137 139.793   3 
  -4   0  10 80.4720 46.2602   3 
  -4   1  -3 145.453 41.9036   1 
  -4   1  -2 8342.66 261.330   1 
  -4   1  -1 1765.36 74.7704   4 
  -4   1   0 866.512 99.8992   6 
  -4   1   0 803.155 91.8861   2 
  -4   1   0 798.515 63.9876   4 
  -4   1   1 20910.6 488.588   6 
  -4   1   1 19556.7 397.801   4 
  -4   1   1 20081.5 435.211   2 
  -4   1   1 20181.2 505.582   3 
  -4   1   2 19591.1 503.749   3 
  -4   1   2 19801.3 443.149   2 
  -4   1   2 18965.7 492.036   6 
  -4   1   3 3084.35 177.885   2 
  -4   1   3 2726.96 195.866   3 
  -4   1   4 5772.26 301.743   3 
  -4   1   5 86.4887 48.9804   3 
  -4   1   5 21.5879 49.3733   6 
  -4   1   6 28.1665 47.7498   3 
  -4   1   7 1025.56 158.994   3 
  -4   1   8 674.900 142.976   3 
  -4   1   9 1472.85 220.458   3 
  -4   1  10 306.888 117.608   3 
  -4   2  -6 1684.63 172.157   7 
  -4   2  -4 491.940 63.8145   1 
  -4   2  -3 1273.52 95.0093   1 
  -4   2  -1 18214.6 341.588   4 
  -4   2   0 2944.86 147.423   4 
  -4   2   1 2723.88 159.621   4 
  -4   2   1 3016.81 197.510   3 
  -4   2   1 2778.39 149.900   2 
  -4   2   1 3245.10 137.138   5 
  -4   2   2 25300.3 550.471   4 
  -4   2   2 23361.2 549.094   3 
  -4   2   2 24139.5 427.968   2 
  -4   2   3 5210.63 267.467   3 
  -4   2   3 5015.11 205.004   2 
  -4   2   3 5313.01 285.483   4 
  -4   2   4 832.684 115.830   3 
  -4   2   4 700.550 113.039   4 
  -4   2   5 726.734 115.242   3 
  -4   2   5 834.484 122.459   6 
  -4   2   5 836.786 138.060   4 
  -4   2   6 707.415 126.050   3 
  -4   2   7 296.136 82.1609   3 
  -4   2   8 3226.39 300.961   3 
  -4   2   9-39.5916 66.2516   3 
  -4   2  10 671.128 162.795   3 
  -4   2  11 1.16181 49.1509   3 
  -4   3  -5 733.448 103.568   7 
  -4   3  -4 4332.26 152.773   1 
  -4   3  -1 16979.4 403.422   4 
  -4   3   0 1953.91 134.832   5 
  -4   3   0 1883.70 139.759   4 
  -4   3   1 407.525 77.4501   3 
  -4   3   1 338.676 63.0878   4 
  -4   3   1 422.925 59.1870   5 
  -4   3   2-9.36268 25.7292   4 
  -4   3   2 22.5560 26.7633   5 
  -4   3   2-6.06504 21.2001   3 
  -4   3   3 1666.75 170.703   4 
  -4   3   3 1455.88 141.580   3 
  -4   3   3 1524.36 94.2094   2 
  -4   3   3 1331.72 108.934   5 
  -4   3   4 1922.78 174.122   3 
  -4   3   4 1871.08 196.533   4 
  -4   3   4 1762.31 110.371   2 
  -4   3   5 13.5400 21.7970   3 
  -4   3   5 32.9321 42.3732   4 
  -4   3   6 263.021 84.3280   3 
  -4   3   7 1147.58 172.573   3 
  -4   3   8 228.204 94.8021   3 
  -4   3   9 1093.80 194.052   3 
  -4   3  10 448.949 135.913   3 
  -4   3  11-157.740 76.2063   3 
  -4   4  -5 563.939 45.7798   1 
  -4   4  -5 932.537 108.281   7 
  -4   4  -2 3043.85 204.688   4 
  -4   4  -1 1181.78 131.455   5 
  -4   4  -1 1287.15 127.465   4 
  -4   4   0 144.749 47.4081   4 
  -4   4   0 54.3755 17.4991   5 
  -4   4   1 57.8816 33.0451   3 
  -4   4   1 59.6312 37.9544   4 
  -4   4   1 59.5110 31.0595   5 
  -4   4   2 112.740 41.7313   3 
  -4   4   2 90.8403 29.8117   5 
  -4   4   2 130.809 54.4881   4 
  -4   4   3 7816.37 326.184   3 
  -4   4   3 8758.92 413.661   4 
  -4   4   3 8049.71 304.133   5 
  -4   4   4 106.498 18.4094   2 
  -4   4   4 203.376 55.8954   5 
  -4   4   4 170.864 52.9136   3 
  -4   4   4 259.703 81.7284   4 
  -4   4   5 709.729 59.7742   2 
  -4   4   5 949.565 131.805   3 
  -4   4   6 73.2825 44.4173   3 
  -4   4   7 931.889 157.420   3 
  -4   4   8 1742.14 236.051   3 
  -4   4   9 446.802 135.750   3 
  -4   4  10-4.86974 41.0334   3 
  -4   5  -2 4562.06 292.759   5 
  -4   5  -2 4622.26 279.259   4 
  -4   5  -1 393.061 84.0385   4 
  -4   5  -1 341.991 74.1884   5 
  -4   5   0 24.2610 26.4565   3 
  -4   5   0 71.1440 43.3942   4 
  -4   5   0 61.2746 39.4019   5 
  -4   5   1 59.4837 21.7841   3 
  -4   5   1 11.6683 22.2878   4 
  -4   5   2 2298.36 205.521   4 
  -4   5   2 2339.96 189.297   5 
  -4   5   2 2356.00 167.301   3 
  -4   5   3 6183.12 284.976   3 
  -4   5   3 5720.43 288.023   5 
  -4   5   3 6653.75 379.108   4 
  -4   5   4 44.3382 40.2713   5 
  -4   5   4 67.8322 45.3826   3 
  -4   5   5 1884.88 188.839   3 
  -4   5   5 1467.93 183.050   5 
  -4   5   6 963.479 146.637   3 
  -4   5   7 2208.15 238.856   3 
  -4   5   8 383.114 108.818   3 
  -4   5   9 3311.60 341.268   3 
  -4   5  10 40.5093 55.5316   3 
  -4   6  -4 125.975 50.2294   3 
  -4   6  -4 176.933 89.8655   5 
  -4   6  -3 14746.3 612.485   5 
  -4   6  -2 615.685 106.540   4 
  -4   6  -2 697.666 116.845   5 
  -4   6  -1 31216.8 764.698   5 
  -4   6  -1 33887.5 833.574   4 
  -4   6   0 7601.81 368.329   5 
  -4   6   0 8200.93 347.662   3 
  -4   6   0 7379.84 384.139   4 
  -4   6   1 18.1449 27.1183   3 
  -4   6   1-2.43535 25.6206   4 
  -4   6   1 13.9527 35.1889   5 
  -4   6   2 3762.14 268.996   5 
  -4   6   2 3502.75 197.392   3 
  -4   6   3 3032.41 239.175   5 
  -4   6   3 2970.56 198.729   3 
  -4   6   4 413.695 80.1860   3 
  -4   6   4 355.117 84.8436   5 
  -4   6   5 870.299 126.425   3 
  -4   6   5 761.661 133.229   5 
  -4   6   6 791.514 149.363   5 
  -4   6   6 1148.59 158.655   3 
  -4   6   7 1558.13 204.771   3 
  -4   6   8 16101.6 697.643   3 
  -4   6   9 1193.11 196.374   3 
  -4   6  10 3.67251 76.8366   3 
  -4   7  -7 198.854 92.6618   5 
  -4   7  -6 622.270 160.205   5 
  -4   7  -5 133.997 77.4742   5 
  -4   7  -4 190.630 89.5915   5 
  -4   7  -4 277.451 74.8591   3 
  -4   7  -3 189.786 58.3965   3 
  -4   7  -3 123.206 59.3772   5 
  -4   7  -2 8087.62 446.982   5 
  -4   7  -1 62.8571 39.8231   5 
  -4   7   0 1223.06 159.795   5 
  -4   7   0 1353.36 127.516   3 
  -4   7   1 273.264 54.9172   3 
  -4   7   1 254.502 75.9018   5 
  -4   7   2 416.217 67.7346   3 
  -4   7   2 508.585 110.609   5 
  -4   7   3 88.5031 38.4693   3 
  -4   7   3 118.805 46.0638   5 
  -4   7   4 1505.13 146.926   3 
  -4   7   4 1260.40 172.220   5 
  -4   7   5-3.08971 27.6894   5 
  -4   7   5-39.9513 28.4202   3 
  -4   7   6 3704.45 329.339   5 
  -4   7   6 4661.37 316.578   3 
  -4   7   7 880.428 141.929   3 
  -4   7   8 993.047 165.803   3 
  -4   8  -7-47.5981 39.3072   5 
  -4   8  -6 1093.93 221.655   5 
  -4   8  -5 1814.68 287.610   5 
  -4   8  -4 1569.80 252.785   5 
  -4   8  -3 55.0971 37.6188   5 
  -4   8  -2 195.956 77.1924   5 
  -4   8  -2 315.988 63.9611   3 
  -4   8  -1 220.571 58.4333   3 
  -4   8  -1 224.040 69.0893   5 
  -4   8   0 315.129 100.318   5 
  -4   8   0 349.516 62.2653   3 
  -4   8   1 3050.71 284.116   5 
  -4   8   1 2795.30 151.742   3 
  -4   8   2 1266.16 107.982   3 
  -4   8   2 1504.27 202.853   5 
  -4   8   3 3722.18 192.500   3 
  -4   8   3 4081.30 335.694   5 
  -4   8   4 2764.24 179.689   3 
  -4   8   4 2659.25 264.202   5 
  -4   8   5 160.643 66.7774   5 
  -4   8   6 1288.64 195.806   5 
  -4   8   8 127.033 88.4802   7 
  -4   9  -5 644.121 184.881   5 
  -4   9  -4 109.108 74.1636   5 
  -4   9  -3 1189.49 222.173   5 
  -4   9  -2 1771.14 241.299   5 
  -4   9  -1 40.8474 60.4025   5 
  -4   9   0 309.238 109.804   5 
  -4   9   1 341.193 104.842   5 
  -4   9   2-107.826 70.6417   5 
  -4   9   3 7404.08 488.838   5 
  -4   9   4 189.043 89.8847   5 
  -4   9   5 83.0074 68.1225   5 
  -4   9   5 50.0576 36.2316   7 
  -4   9   6 66.2913 52.0616   5 
  -4   9   6 100.026 61.7788   7 
  -4   9   7 590.141 174.772   7 
  -4  10  -4 576.684 180.848   5 
  -4  10  -3 110.004 80.9373   5 
  -4  10  -2 39.7986 54.0515   5 
  -4  10  -1 335.711 111.073   5 
  -4  10   0-7.11000 35.8951   5 
  -4  10   1-26.4735 52.8735   5 
  -4  10   2 314.473 107.400   5 
  -4  10   3 167.339 59.7503   5 
  -4  10   4 56.8807 47.8444   5 
  -4  10   5-24.3508 53.4794   5 
  -4  10   5 43.1464 63.3721   7 
  -4  10   6 94.0906 90.5121   7 
  -4  11   1 1208.50 221.545   5 
  -3 -10  -4 517.792 121.242   4 
  -3 -10  -3 582.449 160.662   4 
  -3 -10  -2 2315.20 299.622   4 
  -3 -10  -1 2140.30 290.610   4 
  -3 -10   0 347.380 132.960   4 
  -3 -10   1-58.9090 79.7788   4 
  -3 -10   2 94.4742 94.6657   4 
  -3  -9  -5 252.962 96.2895   4 
  -3  -9  -4 407.429 117.231   4 
  -3  -9  -3 616.920 149.686   4 
  -3  -9  -2 152.740 62.9852   4 
  -3  -9  -1 146.785 94.5667   4 
  -3  -9   0 259.295 105.498   4 
  -3  -9   1 293.611 99.6338   4 
  -3  -9   2 6.68844 58.0570   4 
  -3  -9   3 168.776 98.5971   4 
  -3  -9   4 196.244 90.6924   4 
  -3  -9   5-33.5006 94.2335   4 
  -3  -8  -5 154.950 75.8723   4 
  -3  -8  -4-38.3085 40.7935   4 
  -3  -8  -3 388.772 111.731   4 
  -3  -8  -2 976.603 168.137   4 
  -3  -8  -1 120.191 63.3742   4 
  -3  -8   0 3222.10 309.657   4 
  -3  -8   1 470.167 117.541   4 
  -3  -8   1 406.564 58.2065   3 
  -3  -8   1 554.554 112.483   7 
  -3  -8   2 2175.82 274.047   4 
  -3  -8   2 2129.09 156.914   3 
  -3  -8   3 666.328 103.497   3 
  -3  -8   3 575.020 135.314   4 
  -3  -8   4 469.627 144.995   4 
  -3  -8   4 540.774 103.563   3 
  -3  -8   5 1493.28 198.181   3 
  -3  -8   5 1920.54 308.648   4 
  -3  -8   6-6.70041 84.8318   4 
  -3  -8   6 181.535 93.3272   3 
  -3  -8   7 58.5188 55.9876   3 
  -3  -7  -4 557.479 109.551   4 
  -3  -7  -3 2160.07 151.935   3 
  -3  -7  -3 2331.29 158.345   3 
  -3  -7  -3 2502.91 235.550   4 
  -3  -7  -2 405.400 101.954   4 
  -3  -7  -2 322.065 55.0761   3 
  -3  -7  -1 18878.7 629.795   7 
  -3  -7  -1 18702.1 676.009   4 
  -3  -7   0 4606.84 204.521   3 
  -3  -7   0 5268.21 320.708   7 
  -3  -7   0 5606.87 382.341   4 
  -3  -7   1 528.117 112.938   4 
  -3  -7   1 481.772 76.5659   3 
  -3  -7   2 128.837 77.1374   4 
  -3  -7   2 156.390 39.4431   3 
  -3  -7   3 86.9224 74.2740   4 
  -3  -7   3 77.9156 52.8429   3 
  -3  -7   4 141.115 90.1537   4 
  -3  -7   4 480.210 108.154   3 
  -3  -7   5 51.5265 54.6438   3 
  -3  -7   5 0.97164 69.8947   4 
  -3  -7   6 345.729 131.216   4 
  -3  -7   6 283.318 100.316   3 
  -3  -7   7 858.432 213.667   4 
  -3  -7   7 901.705 178.595   3 
  -3  -7   8 5513.81 460.969   3 
  -3  -7   9 3026.00 358.828   3 
  -3  -6  -6 518.263 95.4195   6 
  -3  -6  -5 334.985 74.8135   3 
  -3  -6  -4 1429.24 175.651   4 
  -3  -6  -4 1479.29 149.040   3 
  -3  -6  -3 1437.50 168.679   4 
  -3  -6  -2 633.447 113.326   7 
  -3  -6  -2 608.300 106.344   2 
  -3  -6  -2 706.103 93.1353   3 
  -3  -6  -2 664.830 119.030   4 
  -3  -6  -1 20661.3 607.866   6 
  -3  -6  -1 21595.2 661.004   4 
  -3  -6  -1 19987.0 442.717   3 
  -3  -6  -1 22097.0 657.390   2 
  -3  -6   0 6585.05 258.042   3 
  -3  -6   0 6716.73 364.598   6 
  -3  -6   0 7355.72 392.273   2 
  -3  -6   0 7035.69 391.786   4 
  -3  -6   1 899.995 104.632   3 
  -3  -6   1 986.481 155.233   5 
  -3  -6   1 842.869 147.148   4 
  -3  -6   1 882.067 144.009   2 
  -3  -6   2 1563.00 195.989   5 
  -3  -6   2 1894.69 171.525   3 
  -3  -6   2 1682.56 210.917   4 
  -3  -6   3 1810.30 182.199   3 
  -3  -6   3 1557.60 228.952   4 
  -3  -6   4 1525.18 174.599   3 
  -3  -6   4 1323.95 222.259   4 
  -3  -6   5 123.928 70.1586   4 
  -3  -6   5 296.444 93.8123   3 
  -3  -6   6 2943.92 291.327   3 
  -3  -6   6 2978.56 360.102   4 
  -3  -6   7 707.086 180.403   4 
  -3  -6   7 622.771 153.424   3 
  -3  -6   8 1512.14 257.406   4 
  -3  -6   8 1644.73 250.014   3 
  -3  -6   9 91.1095 94.0162   3 
  -3  -5  -6 461.237 77.6221   6 
  -3  -5  -5 487.378 99.2119   3 
  -3  -5  -4 666.868 120.321   4 
  -3  -5  -4 542.605 87.9456   3 
  -3  -5  -3 536.996 99.6619   4 
  -3  -5  -2 377.860 77.8966   2 
  -3  -5  -2 290.957 63.6255   4 
  -3  -5  -2 493.318 104.589   5 
  -3  -5  -1 248.102 84.0439   1 
  -3  -5  -1 202.732 61.7126   2 
  -3  -5  -1 170.681 63.4306   5 
  -3  -5  -1 148.752 36.0584   3 
  -3  -5  -1 142.450 55.3872   6 
  -3  -5  -1 164.233 57.7544   4 
  -3  -5   0 4177.87 285.887   1 
  -3  -5   0 4781.04 300.587   5 
  -3  -5   0 4403.60 213.827   3 
  -3  -5   0 4202.61 276.035   2 
  -3  -5   0 4056.10 259.331   6 
  -3  -5   0 4158.40 265.662   4 
  -3  -5   1 2175.52 197.888   5 
  -3  -5   1 2057.84 193.428   1 
  -3  -5   1 1966.31 195.574   4 
  -3  -5   1 2059.36 200.529   2 
  -3  -5   1 2210.74 156.862   3 
  -3  -5   1 2078.72 195.522   6 
  -3  -5   2 1244.90 160.385   6 
  -3  -5   2 1196.34 123.532   3 
  -3  -5   2 1075.36 143.884   5 
  -3  -5   2 1113.55 154.766   4 
  -3  -5   3 212.600 83.3775   4 
  -3  -5   3 248.765 64.3274   3 
  -3  -5   4 496.518 116.707   4 
  -3  -5   4 505.407 105.099   3 
  -3  -5   5 500.983 143.706   4 
  -3  -5   5 575.380 118.397   3 
  -3  -5   6 124.340 45.8753   3 
  -3  -5   7 448.372 124.137   3 
  -3  -5   8 194.947 93.0201   3 
  -3  -5   9 1119.38 224.052   3 
  -3  -5  10 312.918 130.226   3 
  -3  -4  -7 78.0252 24.6447   6 
  -3  -4  -6 14772.2 356.184   6 
  -3  -4  -5 1268.47 152.719   3 
  -3  -4  -5 1459.51 118.445   6 
  -3  -4  -3-3.08380 44.5030   7 
  -3  -4  -3 69.2734 54.5066   5 
  -3  -4  -3 45.3078 26.4760   4 
  -3  -4  -2 10251.4 430.876   5 
  -3  -4  -2 9219.65 367.905   2 
  -3  -4  -2 9447.34 336.792   4 
  -3  -4  -1 3572.32 208.450   6 
  -3  -4  -1 4072.89 264.359   5 
  -3  -4  -1 3925.16 272.532   1 
  -3  -4  -1 3754.39 237.504   2 
  -3  -4  -1 3575.03 209.305   4 
  -3  -4   0 6204.89 310.732   5 
  -3  -4   0 5561.46 272.576   4 
  -3  -4   0 5654.23 245.916   3 
  -3  -4   0 5350.60 293.708   1 
  -3  -4   0 5355.66 288.646   2 
  -3  -4   0 5449.01 273.314   6 
  -3  -4   1 229.649 59.4113   6 
  -3  -4   1 138.692 50.0077   1 
  -3  -4   1 198.651 56.5751   5 
  -3  -4   1 162.211 52.4876   2 
  -3  -4   1 182.913 46.0438   3 
  -3  -4   1 159.184 58.1776   4 
  -3  -4   2 1066.23 132.285   5 
  -3  -4   2 1207.48 123.359   3 
  -3  -4   2 1167.81 147.826   4 
  -3  -4   2 1221.69 146.411   6 
  -3  -4   3 38647.7 851.296   6 
  -3  -4   3 39301.8 908.345   4 
  -3  -4   3 37811.6 764.448   3 
  -3  -4   4 589.629 110.935   6 
  -3  -4   4 683.052 114.886   3 
  -3  -4   5 451.696 102.889   3 
  -3  -4   6-39.0985 46.0738   3 
  -3  -4   7-9.76716 48.0780   3 
  -3  -4   8 88.6318 57.6100   3 
  -3  -4   9 1293.81 228.934   3 
  -3  -4  10 270.775 121.635   3 
  -3  -3  -7 3.56618 8.13119   6 
  -3  -3  -6 26.4099 17.0272   6 
  -3  -3  -5 103.628 49.5788   3 
  -3  -3  -5 73.3769 20.2912   6 
  -3  -3  -4 574.558 112.394   5 
  -3  -3  -4 482.426 96.1678   7 
  -3  -3  -3 144.828 40.8514   5 
  -3  -3  -3 236.680 55.4126   4 
  -3  -3  -2 11399.1 309.681   6 
  -3  -3  -2 11836.3 328.175   4 
  -3  -3  -2 11751.6 425.181   5 
  -3  -3  -2 11986.5 463.854   1 
  -3  -3  -2 10921.5 385.984   2 
  -3  -3  -1 9791.18 310.635   6 
  -3  -3  -1 10072.9 395.245   1 
  -3  -3  -1 10983.1 389.122   5 
  -3  -3  -1 10055.3 369.436   2 
  -3  -3  -1 9604.84 293.188   4 
  -3  -3   0 15.7553 17.4514   4 
  -3  -3   0-8.10850 31.9015   2 
  -3  -3   0 4.31082 34.0280   1 
  -3  -3   0 39.4468 29.3008   6 
  -3  -3   0 17.4810 29.6966   5 
  -3  -3   0 35.2424 18.6781   3 
  -3  -3   1 3262.96 205.507   6 
  -3  -3   1 3258.58 209.257   2 
  -3  -3   1 3624.43 195.303   3 
  -3  -3   1 3332.17 188.750   5 
  -3  -3   1 3296.84 217.292   1 
  -3  -3   1 3200.24 196.517   4 
  -3  -3   2 3274.45 223.371   6 
  -3  -3   2 3110.94 192.049   5 
  -3  -3   2 3402.10 200.131   3 
  -3  -3   3 4449.08 250.841   3 
  -3  -3   4 1667.52 167.824   3 
  -3  -3   4 1614.00 171.250   6 
  -3  -3   5 32.9443 37.3395   6 
  -3  -3   5-62.1515 37.2051   3 
  -3  -3   6 76.6751 55.9476   3 
  -3  -3   7 74.0982 59.7169   3 
  -3  -3   8 185.863 86.9057   3 
  -3  -3   9 574.734 149.962   3 
  -3  -3  10 294.916 114.832   3 
  -3  -2  -5 286.308 99.0969   5 
  -3  -2  -5 205.800 77.0825   7 
  -3  -2  -5 270.151 77.5192   3 
  -3  -2  -4-2.49708 24.7712   7 
  -3  -2  -4 2.44317 6.38657   6 
  -3  -2  -4 0.78435 26.8980   5 
  -3  -2  -4 14.1685 8.98735   6 
  -3  -2  -3 3625.61 239.292   5 
  -3  -2  -3 3686.38 125.574   6 
  -3  -2  -2 120660. 1210.65   5 
  -3  -2  -2 120880. 1313.93   1 
  -3  -2  -2 123742. 858.897   4 
  -3  -2  -1 40227.1 654.005   5 
  -3  -2  -1 40658.2 703.393   2 
  -3  -2  -1 39222.6 469.262   4 
  -3  -2  -1 40485.9 533.641   6 
  -3  -2   0 255.147 51.1232   1 
  -3  -2   0 329.712 59.8123   5 
  -3  -2   0 324.761 64.1318   2 
  -3  -2   0 290.055 56.8389   3 
  -3  -2   0 312.571 42.8433   4 
  -3  -2   0 313.225 55.5764   6 
  -3  -2   1 13415.8 314.331   5 
  -3  -2   1 14076.1 378.928   3 
  -3  -2   1 13196.7 395.871   2 
  -3  -2   1 12895.6 361.452   6 
  -3  -2   2 455.105 73.1648   3 
  -3  -2   2 442.212 73.4170   6 
  -3  -2   2 455.302 60.8498   5 
  -3  -2   3 7391.99 312.017   3 
  -3  -2   4 6113.06 310.125   3 
  -3  -2   5 413.578 90.0514   6 
  -3  -2   5 410.847 88.4790   3 
  -3  -2   6 2872.17 249.250   3 
  -3  -2   6 2985.52 248.683   6 
  -3  -2   7 3821.79 313.982   3 
  -3  -2   8 1553.21 221.154   3 
  -3  -2   9 1080.43 196.144   3 
  -3  -2  10-61.6616 61.6274   3 
  -3  -2  12 1736.25 261.741   7 
  -3  -1  -5 2363.56 208.981   3 
  -3  -1  -5 2121.56 196.949   7 
  -3  -1  -2 5939.87 265.083   5 
  -3  -1  -2 5487.84 246.750   1 
  -3  -1  -1 5251.37 226.483   1 
  -3  -1  -1 5344.99 157.609   6 
  -3  -1  -1 5163.14 208.141   5 
  -3  -1  -1 5140.00 232.331   2 
  -3  -1   0 13978.2 296.782   5 
  -3  -1   0 15991.8 407.921   2 
  -3  -1   0 15506.8 325.980   6 
  -3  -1   0 14606.9 370.649   1 
  -3  -1   1 354.382 39.6936   5 
  -3  -1   1 455.233 62.8744   6 
  -3  -1   1 386.335 62.3073   2 
  -3  -1   1 459.226 67.4514   3 
  -3  -1   2 22265.8 483.854   3 
  -3  -1   3 2595.94 179.011   3 
  -3  -1   4 57275.6 918.691   3 
  -3  -1   5 158.457 61.0544   6 
  -3  -1   5 142.301 46.2398   3 
  -3  -1   6 1153.97 148.719   6 
  -3  -1   6 1135.31 154.944   3 
  -3  -1   7 948.986 152.941   3 
  -3  -1   8 516.231 127.109   3 
  -3  -1   9 64.8460 52.6832   3 
  -3  -1  10 203.695 100.868   3 
  -3  -1  11 24.8739 42.7247   3 
  -3   0  -5 1001.60 138.175   3 
  -3   0  -5 1060.91 132.508   7 
  -3   0  -2 17681.0 393.947   1 
  -3   0  -1 4681.62 187.162   1 
  -3   0  -1 4621.75 146.133   6 
  -3   0   0 3685.17 176.851   2 
  -3   0   0 3197.59 145.393   6 
  -3   0   1 213.851 41.7960   6 
  -3   0   1 201.829 42.7073   2 
  -3   0   1 246.037 51.9554   3 
  -3   0   2 42422.9 655.975   3 
  -3   0   3 945.168 105.323   3 
  -3   0   4 2910.81 205.366   3 
  -3   0   5 358.467 80.7456   3 
  -3   0   5 539.266 93.6074   6 
  -3   0   6 2832.41 222.087   6 
  -3   0   6 2622.63 229.737   3 
  -3   0   7 566.759 116.644   3 
  -3   0   8 1714.86 221.411   3 
  -3   0   9 24.8367 45.1050   3 
  -3   0  10 1228.02 212.003   3 
  -3   0  11 3896.79 394.637   3 
  -3   1  -5 631.544 99.3322   7 
  -3   1  -5 668.007 117.497   3 
  -3   1  -2 3354.89 140.690   1 
  -3   1  -1 16386.9 299.515   1 
  -3   1  -1 15083.7 220.865   4 
  -3   1   0 2120.40 94.2491   4 
  -3   1   1 162.574 37.9496   6 
  -3   1   1 175.142 37.4896   2 
  -3   1   1 145.860 20.3706   5 
  -3   1   1 145.843 35.9511   4 
  -3   1   1 160.245 39.0538   3 
  -3   1   2 13922.9 371.203   3 
  -3   1   2 13185.5 300.280   2 
  -3   1   3 1417.74 128.457   3 
  -3   1   4 29343.5 638.604   3 
  -3   1   5 36.3844 37.3121   6 
  -3   1   5 37.4069 31.6373   3 
  -3   1   6 1674.98 184.709   3 
  -3   1   6 1437.19 157.969   6 
  -3   1   7 955.501 155.814   3 
  -3   1   8 3724.77 322.835   3 
  -3   1   9 970.166 172.442   3 
  -3   1  10 98.9559 73.9981   3 
  -3   1  11-27.6642 65.8259   3 
  -3   2  -5 17.8885 26.1492   7 
  -3   2  -5 3.46974 22.3722   3 
  -3   2  -2 72419.9 516.244   1 
  -3   2  -1 18087.0 338.661   4 
  -3   2   0 868.432 78.4770   4 
  -3   2   1-0.90163 24.0338   4 
  -3   2   1 18.2325 17.7805   3 
  -3   2   1 0.80174 13.9705   5 
  -3   2   2 34736.1 581.738   3 
  -3   2   2 33758.9 411.589   2 
  -3   2   2 33051.8 424.356   5 
  -3   2   3 1028.60 110.431   3 
  -3   2   3 925.599 82.3607   5 
  -3   2   3 1216.14 134.083   4 
  -3   2   4 323.438 64.7905   3 
  -3   2   5 19.3683 28.8657   6 
  -3   2   5-11.7958 20.3761   3 
  -3   2   5 24.7168 41.7201   4 
  -3   2   6 25.6827 30.6792   6 
  -3   2   6-32.5689 36.1591   3 
  -3   2   7 7254.29 415.786   3 
  -3   2   8 3174.54 298.824   3 
  -3   2   9-69.1228 72.3100   3 
  -3   2  10 78.7805 60.8162   3 
  -3   2  11 175.366 96.9533   3 
  -3   3  -5 739.599 118.605   3 
  -3   3  -3 954.808 48.2852   1 
  -3   3  -1 3157.88 174.933   4 
  -3   3   0 4953.42 208.817   5 
  -3   3   0 4522.96 211.020   4 
  -3   3   1 1642.14 126.768   3 
  -3   3   1 1685.90 118.131   5 
  -3   3   1 1303.84 116.573   4 
  -3   3   2 42876.9 641.678   3 
  -3   3   2 40893.4 578.418   5 
  -3   3   2 42241.8 735.669   4 
  -3   3   3 2116.93 144.694   5 
  -3   3   3 2086.72 154.600   3 
  -3   3   3 1677.54 77.7202   2 
  -3   3   4 2175.24 177.257   3 
  -3   3   4 2170.34 163.488   5 
  -3   3   5 497.279 93.4967   3 
  -3   3   5 386.398 94.1746   4 
  -3   3   6 653.237 123.338   3 
  -3   3   7 1911.81 218.161   3 
  -3   3   8 149.107 58.6001   3 
  -3   3   9 136.652 72.4928   3 
  -3   3  10 29.6429 46.5291   3 
  -3   3  11 200.648 117.894   3 
  -3   4  -5 50.6055 24.8743   3 
  -3   4  -4 6175.42 312.857   3 
  -3   4  -4 5557.45 210.663   7 
  -3   4  -2 344.672 73.7087   4 
  -3   4  -1 49.2641 33.2373   5 
  -3   4  -1 8.51947 29.4328   4 
  -3   4   0 27.1351 32.4033   4 
  -3   4   0 36.4656 22.1005   5 
  -3   4   1 4112.74 196.162   3 
  -3   4   1 4335.65 226.437   5 
  -3   4   1 4176.67 237.359   4 
  -3   4   2 14572.7 363.356   3 
  -3   4   2 14869.2 473.963   4 
  -3   4   3 49092.3 779.923   5 
  -3   4   3 47484.1 735.722   3 
  -3   4   4 117.072 58.9545   4 
  -3   4   4 142.184 45.7876   3 
  -3   4   4 146.204 49.8061   5 
  -3   4   5 1281.74 149.718   3 
  -3   4   5 1349.78 186.832   4 
  -3   4   6 2388.55 224.355   3 
  -3   4   7 2618.74 263.081   3 
  -3   4   8 137.368 71.4988   3 
  -3   4   9-27.4569 36.0478   3 
  -3   4  10-105.256 83.2397   3 
  -3   4  11 313.090 128.345   3 
  -3   5  -6 203.025 28.8073   1 
  -3   5  -5 37.4087 23.0746   3 
  -3   5  -4 134.075 52.9302   3 
  -3   5  -3 11356.9 484.910   5 
  -3   5  -2 976.703 131.905   5 
  -3   5  -2 1203.66 141.105   4 
  -3   5  -1 2773.62 206.554   5 
  -3   5  -1 3057.71 226.931   4 
  -3   5   0 1779.30 159.005   5 
  -3   5   0 1869.67 174.110   4 
  -3   5   1 4776.18 272.036   5 
  -3   5   1 4405.70 189.127   3 
  -3   5   1 4519.33 274.979   4 
  -3   5   2 264.242 78.0457   4 
  -3   5   2 314.297 69.0942   5 
  -3   5   2 333.191 58.1395   3 
  -3   5   3 1139.80 131.847   5 
  -3   5   3 1393.16 171.971   4 
  -3   5   3 1319.47 123.374   3 
  -3   5   4 800.031 109.710   3 
  -3   5   4 645.158 111.263   5 
  -3   5   4 742.191 144.024   4 
  -3   5   5 2558.44 238.408   5 
  -3   5   5 2973.51 228.058   3 
  -3   5   6 4369.78 309.440   3 
  -3   5   6 1181.23 59.5223   2 
  -3   5   7 162.818 77.7367   3 
  -3   5   8 6046.83 426.298   3 
  -3   5   9 1251.06 204.644   3 
  -3   5  10 453.642 147.525   3 
  -3   6  -5 146.633 70.4213   5 
  -3   6  -5 126.488 56.2338   3 
  -3   6  -4 339.898 110.178   5 
  -3   6  -4 377.512 82.5832   3 
  -3   6  -3-35.7382 38.0873   3 
  -3   6  -3 114.905 78.1286   5 
  -3   6  -2 9168.53 439.577   5 
  -3   6  -2 9815.99 463.451   4 
  -3   6  -1 693.577 121.183   4 
  -3   6  -1 742.395 120.616   5 
  -3   6   0 946.203 128.056   5 
  -3   6   0 1009.61 96.5261   3 
  -3   6   0 1048.00 146.410   4 
  -3   6   1 6710.18 217.142   3 
  -3   6   1 7101.79 363.758   5 
  -3   6   1 6398.57 353.617   4 
  -3   6   2 1460.53 166.673   5 
  -3   6   2 1487.83 115.943   3 
  -3   6   2 1323.08 168.469   4 
  -3   6   3 906.642 102.621   3 
  -3   6   3 793.936 128.127   5 
  -3   6   4 5.95016 29.6301   5 
  -3   6   4-75.5904 39.7454   3 
  -3   6   5 1441.63 184.452   5 
  -3   6   5 1942.21 179.516   3 
  -3   6   6 656.809 137.629   5 
  -3   6   6 795.862 127.275   3 
  -3   6   7 11927.3 522.843   3 
  -3   6   8 38.5578 33.6317   3 
  -3   6   9 955.621 177.276   3 
  -3   6   9 912.803 216.991   7 
  -3   7  -8 58.9877 59.0082   5 
  -3   7  -7-11.3801 40.3546   5 
  -3   7  -6 39.4552 47.7413   5 
  -3   7  -5 60.3894 75.6987   5 
  -3   7  -5-22.4836 40.3036   3 
  -3   7  -4 705.837 108.342   3 
  -3   7  -4 809.932 170.621   5 
  -3   7  -3 32248.6 651.961   3 
  -3   7  -3 32381.3 961.799   5 
  -3   7  -2 7641.21 279.439   3 
  -3   7  -2 7338.92 419.087   5 
  -3   7  -1 3371.55 266.369   5 
  -3   7   0 1364.20 169.008   5 
  -3   7   0 1365.17 93.0425   3 
  -3   7   1 1452.09 181.647   5 
  -3   7   1 1421.42 93.0739   3 
  -3   7   2 177.983 73.3892   5 
  -3   7   2 169.433 33.7865   3 
  -3   7   3 472.277 73.3834   3 
  -3   7   3 253.889 81.1786   5 
  -3   7   4 270.205 83.7392   5 
  -3   7   4 331.324 59.1656   3 
  -3   7   5 1226.40 125.083   3 
  -3   7   5 1038.05 169.089   5 
  -3   7   6 714.354 147.140   5 
  -3   7   6 769.076 113.492   3 
  -3   7   7 489.238 100.230   3 
  -3   7   8 2082.85 287.065   7 
  -3   8  -7-60.7266 75.6268   5 
  -3   8  -6 86.9816 83.1086   5 
  -3   8  -5 436.243 148.576   5 
  -3   8  -4 161.409 91.5856   5 
  -3   8  -3 3399.80 215.514   3 
  -3   8  -3 3001.51 315.511   5 
  -3   8  -2-10.0916 30.2462   5 
  -3   8  -2 24.2370 27.9536   3 
  -3   8  -1 1304.97 103.370   3 
  -3   8  -1 1464.91 193.336   5 
  -3   8   0 52.8743 33.2523   5 
  -3   8   0 11.5121 9.11600   3 
  -3   8   0 26.5143 12.6765   3 
  -3   8   1 562.127 88.8154   7 
  -3   8   1 767.777 139.514   5 
  -3   8   2 1129.85 176.870   5 
  -3   8   3 1437.49 203.344   5 
  -3   8   4 343.239 104.822   5 
  -3   8   5 280.927 106.800   7 
  -3   8   5 279.197 95.6695   5 
  -3   8   6 1907.78 235.982   7 
  -3   8   6 2204.64 267.071   5 
  -3   8   7 1113.00 204.780   7 
  -3   8   8 120.199 101.095   7 
  -3   9  -6 171.062 99.4063   5 
  -3   9  -5 380.041 143.647   5 
  -3   9  -4 114.679 93.8538   5 
  -3   9  -3 1077.91 201.514   5 
  -3   9  -2 236.340 83.2801   5 
  -3   9  -1 44.4508 55.9101   5 
  -3   9   0 1227.62 193.930   5 
  -3   9   1 174.225 85.2240   5 
  -3   9   2 71.2392 51.0676   5 
  -3   9   3 500.620 115.253   7 
  -3   9   3 468.938 131.423   5 
  -3   9   4 64.0559 49.8227   5 
  -3   9   4 21.3574 58.5461   7 
  -3   9   5 133.423 84.5219   5 
  -3   9   5 149.958 97.0298   7 
  -3   9   6 1486.46 231.570   5 
  -3   9   6 1168.37 206.269   7 
  -3   9   7 197.950 97.3217   7 
  -3  10  -4 1167.96 241.200   5 
  -3  10  -3 90.7135 70.8147   5 
  -3  10  -2 1090.09 194.243   5 
  -3  10  -1 126.239 55.1061   5 
  -3  10   0 674.229 157.411   5 
  -3  10   1 9.91490 61.2497   5 
  -3  10   2 97.9515 84.4633   5 
  -3  10   3 528.662 144.854   5 
  -3  10   4 242.800 113.825   5 
  -3  10   5 248.736 128.444   5 
  -3  11   0 399.106 126.469   5 
  -3  11   1 1890.43 267.453   5 
  -2 -10  -4 222.076 96.4114   4 
  -2 -10  -3 567.018 158.343   4 
  -2 -10  -2 1036.22 217.482   4 
  -2 -10  -1-54.6478 79.5774   4 
  -2 -10   0 79.0309 76.2009   4 
  -2 -10   1 30.2926 54.0511   4 
  -2 -10   2 540.398 149.097   4 
  -2 -10   3-65.1311 63.4394   4 
  -2  -9  -5 1018.15 200.837   4 
  -2  -9  -4-12.2315 61.6945   4 
  -2  -9  -3 25.1859 47.0659   4 
  -2  -9  -2 36.1027 54.4361   4 
  -2  -9  -1 2449.38 289.511   4 
  -2  -9   0 115.377 69.0957   4 
  -2  -9   1 328.381 118.147   4 
  -2  -9   2 842.458 174.173   4 
  -2  -9   3 6039.05 484.177   4 
  -2  -9   4 155.468 102.139   4 
  -2  -9   5 80.0318 58.4072   4 
  -2  -8  -6 532.212 115.604   6 
  -2  -8  -5 108.295 72.3465   4 
  -2  -8  -4 685.391 150.411   4 
  -2  -8  -3 452.171 109.921   4 
  -2  -8  -2 2538.22 264.036   4 
  -2  -8  -2 2517.09 217.554   2 
  -2  -8  -1 1985.88 211.199   2 
  -2  -8  -1 2329.80 273.743   4 
  -2  -8   0 866.962 155.678   4 
  -2  -8   1 111.509 94.1469   4 
  -2  -8   2 1079.47 196.695   4 
  -2  -8   3 2535.86 300.077   4 
  -2  -8   4 250.697 95.2734   4 
  -2  -8   5 74.6214 73.7351   4 
  -2  -8   6 40.4656 59.8307   4 
  -2  -8   7 476.026 159.633   4 
  -2  -7  -6 286.008 92.5063   6 
  -2  -7  -5 897.945 162.274   4 
  -2  -7  -4 17.2595 28.3452   3 
  -2  -7  -4 77.8920 77.4920   4 
  -2  -7  -3 9593.07 261.671   3 
  -2  -7  -3 10047.5 477.181   4 
  -2  -7  -2 2090.37 88.5755   3 
  -2  -7  -2 3497.47 245.250   2 
  -2  -7  -2 3568.95 292.989   4 
  -2  -7  -1 5190.63 316.125   2 
  -2  -7  -1 5423.37 367.102   4 
  -2  -7   0-1.02414 52.5840   4 
  -2  -7   0 34.1373 48.4067   2 
  -2  -7   1 642.756 66.7084   3 
  -2  -7   1 808.651 111.131   7 
  -2  -7   1 884.426 162.818   4 
  -2  -7   1 730.588 133.322   2 
  -2  -7   2 1586.87 127.644   3 
  -2  -7   2 1642.50 230.454   4 
  -2  -7   3 245.804 105.638   4 
  -2  -7   3 225.471 62.2777   3 
  -2  -7   4 42.7834 38.2049   4 
  -2  -7   4 68.7325 48.9097   3 
  -2  -7   5 300.697 88.0726   3 
  -2  -7   5 290.325 115.212   4 
  -2  -7   6 419.615 117.008   3 
  -2  -7   6 302.918 133.601   4 
  -2  -7   7 980.447 188.209   3 
  -2  -7   7 968.324 204.187   4 
  -2  -7   8 2289.70 329.082   4 
  -2  -6  -7 501.465 100.235   6 
  -2  -6  -6 916.132 134.403   3 
  -2  -6  -6 1215.34 146.528   6 
  -2  -6  -5 359.324 87.4499   3 
  -2  -6  -4 5558.60 263.918   3 
  -2  -6  -4 5516.48 348.696   4 
  -2  -6  -3 46422.5 660.996   3 
  -2  -6  -3 43325.3 916.830   4 
  -2  -6  -2 51432.8 588.971   3 
  -2  -6  -2 54250.8 902.683   2 
  -2  -6  -2 50781.6 612.627   3 
  -2  -6  -2 53422.8 1016.26   4 
  -2  -6  -1 78.3105 65.1706   4 
  -2  -6  -1 54.0411 16.7405   3 
  -2  -6  -1 38.0338 37.2958   2 
  -2  -6  -1 44.6473 31.4364   7 
  -2  -6  -1 81.4317 57.6887   1 
  -2  -6   0-55.8705 53.7333   1 
  -2  -6   0 8.94701 13.1277   3 
  -2  -6   0 29.2802 32.5682   4 
  -2  -6   0 48.2479 29.1277   2 
  -2  -6   0 49.9489 39.7177   5 
  -2  -6   0 13.2003 35.2536   7 
  -2  -6   1 177.839 70.1114   5 
  -2  -6   1 180.168 63.2404   2 
  -2  -6   1 328.324 85.4060   6 
  -2  -6   1 260.181 72.1588   1 
  -2  -6   1 257.419 82.1029   4 
  -2  -6   1 175.793 38.2154   3 
  -2  -6   2 367.157 90.7591   5 
  -2  -6   2 479.150 112.436   4 
  -2  -6   2 368.597 66.8053   3 
  -2  -6   3-5.39636 52.0025   4 
  -2  -6   3 72.0280 37.5647   3 
  -2  -6   4 39.6761 44.3001   3 
  -2  -6   4 4.26500 35.2523   4 
  -2  -6   5 1295.60 169.362   3 
  -2  -6   5 1175.87 200.628   4 
  -2  -6   6 4190.76 325.346   3 
  -2  -6   6 4329.91 397.048   4 
  -2  -6   7 3028.99 306.543   3 
  -2  -6   7 2904.50 334.919   4 
  -2  -6   8 973.829 194.060   3 
  -2  -6   8 823.049 193.593   4 
  -2  -6   9 1581.10 279.713   4 
  -2  -6   9 1678.59 274.233   3 
  -2  -5  -7-2.22712 30.7472   6 
  -2  -5  -6 713.396 102.555   6 
  -2  -5  -6 568.759 106.445   3 
  -2  -5  -5 4435.00 277.983   3 
  -2  -5  -4 1643.65 148.830   3 
  -2  -5  -4 1659.31 178.757   4 
  -2  -5  -3 4176.97 303.709   5 
  -2  -5  -3 3620.11 241.533   4 
  -2  -5  -3 3830.37 193.722   3 
  -2  -5  -2 800.379 128.145   5 
  -2  -5  -2 798.206 104.628   2 
  -2  -5  -2 850.969 112.395   7 
  -2  -5  -2 748.038 109.548   4 
  -2  -5  -1 134.912 45.7276   2 
  -2  -5  -1 190.764 59.1518   5 
  -2  -5  -1 175.547 38.1421   3 
  -2  -5  -1 207.448 74.3262   1 
  -2  -5  -1 174.895 61.5072   4 
  -2  -5   0 69.9117 42.3224   1 
  -2  -5   0 81.3453 45.6800   2 
  -2  -5   0 64.3069 51.9885   5 
  -2  -5   0 78.0224 23.0622   3 
  -2  -5   0 55.4119 41.8832   4 
  -2  -5   1 12727.1 471.091   5 
  -2  -5   1 12474.7 461.809   4 
  -2  -5   1 12094.9 425.625   1 
  -2  -5   1 11646.5 462.623   6 
  -2  -5   2 62.8824 36.4847   6 
  -2  -5   2 62.3049 40.0598   4 
  -2  -5   2 56.2450 25.6354   5 
  -2  -5   2 20.3537 16.4883   3 
  -2  -5   3 28564.4 788.527   4 
  -2  -5   3 29178.4 634.930   3 
  -2  -5   3 29874.0 780.556   6 
  -2  -5   4 2631.08 216.219   3 
  -2  -5   4 2533.76 254.328   4 
  -2  -5   5-70.9171 68.3363   4 
  -2  -5   5-7.42806 34.3549   3 
  -2  -5   6 64.8056 51.2510   3 
  -2  -5   7 1151.41 185.977   3 
  -2  -5   8 110.834 56.7228   3 
  -2  -5   9 102.722 87.0300   3 
  -2  -5  10 235.662 108.291   3 
  -2  -4  -8 8.71551 20.4651   6 
  -2  -4  -7 423.523 68.5913   6 
  -2  -4  -6 417.887 67.7965   6 
  -2  -4  -6 554.258 111.305   3 
  -2  -4  -5 137.440 37.1828   6 
  -2  -4  -5 192.740 59.9188   3 
  -2  -4  -4 10089.4 457.900   5 
  -2  -4  -4 8662.86 343.311   3 
  -2  -4  -4 9948.34 403.201   4 
  -2  -4  -3 7405.55 370.583   5 
  -2  -4  -3 6837.18 330.182   7 
  -2  -4  -3 7210.31 313.885   4 
  -2  -4  -2 6073.40 281.833   7 
  -2  -4  -2 6716.27 337.592   5 
  -2  -4  -2 5803.69 261.566   2 
  -2  -4  -2 6090.49 271.000   4 
  -2  -4  -1 55.8602 27.2094   2 
  -2  -4  -1 71.9531 51.1367   5 
  -2  -4  -1 118.568 60.7376   1 
  -2  -4  -1 91.4171 37.2865   4 
  -2  -4   0 9.19664 18.5610   4 
  -2  -4   0 90.3285 30.0968   3 
  -2  -4   0 31.9779 27.1992   2 
  -2  -4   0 71.9288 34.1224   5 
  -2  -4   0-0.32188 29.9418   1 
  -2  -4   1 113.623 44.5481   6 
  -2  -4   1 118.155 44.5705   4 
  -2  -4   1 119.798 38.8874   1 
  -2  -4   1 72.4015 24.5379   5 
  -2  -4   1 138.352 36.6174   3 
  -2  -4   2 2.55208 24.9483   4 
  -2  -4   2 87.9053 45.2382   3 
  -2  -4   2 39.4670 39.7986   5 
  -2  -4   3 1089.48 120.494   3 
  -2  -4   3 967.745 129.457   4 
  -2  -4   4 413.533 90.3763   6 
  -2  -4   4 560.308 100.192   3 
  -2  -4   5 68.9262 56.6372   6 
  -2  -4   5 30.4068 41.3633   3 
  -2  -4   6 578.112 130.135   3 
  -2  -4   7 2214.41 254.728   3 
  -2  -4   8 861.620 172.212   3 
  -2  -4   9 122.024 91.7580   3 
  -2  -4  10 273.316 122.316   3 
  -2  -4  10 367.790 111.597   7 
  -2  -3  -8 6577.27 249.033   6 
  -2  -3  -7 71.8351 35.1376   6 
  -2  -3  -6 13.7778 14.4243   6 
  -2  -3  -6 9.30806 29.3349   3 
  -2  -3  -5 3463.79 274.553   5 
  -2  -3  -5 3450.49 244.916   3 
  -2  -3  -5 3616.71 171.356   6 
  -2  -3  -4 4564.16 283.149   5 
  -2  -3  -4 4255.24 240.791   3 
  -2  -3  -3-7.13534 33.4440   7 
  -2  -3  -3 20.4919 27.1671   4 
  -2  -3  -2 12583.3 340.067   4 
  -2  -3  -2 11602.8 345.928   2 
  -2  -3  -1 16961.9 473.565   1 
  -2  -3  -1 17092.6 427.038   2 
  -2  -3  -1 16718.2 384.067   4 
  -2  -3   0 4017.34 212.303   1 
  -2  -3   0 4598.48 223.927   5 
  -2  -3   0 4377.63 175.682   3 
  -2  -3   0 3961.96 198.026   6 
  -2  -3   0 4063.79 201.960   4 
  -2  -3   0 4116.05 207.710   2 
  -2  -3   1 3226.73 179.149   5 
  -2  -3   1 3203.33 155.060   3 
  -2  -3   1 3252.33 190.309   1 
  -2  -3   1 3005.81 186.721   4 
  -2  -3   1 3127.87 194.613   6 
  -2  -3   2 241.718 50.9899   3 
  -2  -3   2 206.425 59.6222   4 
  -2  -3   2 177.458 48.2491   5 
  -2  -3   3 14522.0 429.320   3 
  -2  -3   4 145.548 52.9121   3 
  -2  -3   5 65.4547 45.9805   6 
  -2  -3   5 178.339 91.9614   3 
  -2  -3   6 180.877 69.0150   6 
  -2  -3   6 66.5765 36.0095   3 
  -2  -3   7 8066.68 461.684   3 
  -2  -3   8 522.294 126.866   3 
  -2  -3   9 113.283 82.7708   3 
  -2  -3  10 547.081 156.806   3 
  -2  -3  11-4.21050 48.4808   7 
  -2  -2  -8 279.443 52.9783   6 
  -2  -2  -7 3886.39 170.714   6 
  -2  -2  -6 997.618 79.4252   6 
  -2  -2  -6 1018.76 148.126   3 
  -2  -2  -5 495.037 53.9861   6 
  -2  -2  -5 508.561 107.753   5 
  -2  -2  -5 343.083 77.8418   3 
  -2  -2  -4 6372.01 296.520   3 
  -2  -2  -4 6495.71 187.444   6 
  -2  -2  -2 20039.4 361.526   4 
  -2  -2  -1 19394.8 426.863   5 
  -2  -2  -1 17736.3 426.108   1 
  -2  -2  -1 18903.2 407.996   2 
  -2  -2  -1 18195.6 321.154   4 
  -2  -2   0 2461.86 148.316   1 
  -2  -2   0 2510.40 136.089   6 
  -2  -2   0 2500.83 130.861   3 
  -2  -2   0 2533.81 149.871   2 
  -2  -2   0 2665.09 131.938   4 
  -2  -2   0 2797.28 148.715   5 
  -2  -2   1 854.533 75.5870   5 
  -2  -2   1 822.931 76.5541   3 
  -2  -2   1 953.267 94.6468   1 
  -2  -2   1 831.160 88.1887   6 
  -2  -2   2 599.311 75.1970   3 
  -2  -2   3 19637.9 476.269   3 
  -2  -2   4 8125.88 338.504   3 
  -2  -2   5 3422.97 230.125   6 
  -2  -2   5 3439.94 243.770   3 
  -2  -2   6 472.496 96.0209   3 
  -2  -2   6 501.147 100.376   6 
  -2  -2   7 1834.78 216.719   3 
  -2  -2   8 820.661 159.418   3 
  -2  -2   9-37.1371 39.6990   3 
  -2  -2  10 604.750 156.002   3 
  -2  -2  11 134.449 80.1619   7 
  -2  -2  11 8.96223 40.6096   3 
  -2  -2  12-21.5108 73.3494   7 
  -2  -1  -8 583.420 80.1183   6 
  -2  -1  -7 3651.40 171.239   6 
  -2  -1  -6 23.2888 12.5484   6 
  -2  -1  -6-20.6550 39.8447   3 
  -2  -1  -5 5737.59 311.953   3 
  -2  -1  -5 5101.55 148.611   6 
  -2  -1  -4 5444.45 279.396   3 
  -2  -1  -4 4785.15 113.372   6 
  -2  -1  -1 2495.88 88.2409   6 
  -2  -1  -1 2377.18 127.626   5 
  -2  -1  -1 2235.31 128.198   1 
  -2  -1  -1 2348.93 130.994   2 
  -2  -1  -1 2313.53 80.0623   4 
  -2  -1   0 18493.8 357.467   1 
  -2  -1   0 18957.9 299.896   6 
  -2  -1   0 19500.4 314.860   5 
  -2  -1   0 20306.7 390.740   2 
  -2  -1   0 19059.6 258.346   4 
  -2  -1   1 105802. 607.587   5 
  -2  -1   1 100062. 819.050   3 
  -2  -1   2 21409.9 419.365   3 
  -2  -1   3 739.836 87.9243   3 
  -2  -1   4 651.424 95.7004   3 
  -2  -1   5-67.5198 41.2051   6 
  -2  -1   5-3.63031 32.3813   3 
  -2  -1   6 1622.71 166.842   6 
  -2  -1   6 1786.44 189.172   3 
  -2  -1   7 31.7348 51.0132   3 
  -2  -1   7-50.0746 46.1394   6 
  -2  -1   8 71.8907 46.0068   3 
  -2  -1   9 78.8252 54.6786   3 
  -2  -1  10-81.4795 69.5936   3 
  -2  -1  11 1836.86 249.029   7 
  -2  -1  11 1497.92 251.497   3 
  -2  -1  12 131.473 95.4804   7 
  -2   0  -6 2554.36 233.254   3 
  -2   0  -5 308.103 75.8839   3 
  -2   0  -4 113.310 42.4281   7 
  -2   0  -1-3.10630 12.0435   6 
  -2   0  -1 21.0640 15.1960   1 
  -2   0   0 26032.3 323.313   6 
  -2   0   0 25989.8 378.226   2 
  -2   0   1 56432.5 602.158   3 
  -2   0   1 53671.1 536.113   2 
  -2   0   3 4864.28 221.403   3 
  -2   0   4 3336.36 191.776   6 
  -2   0   4 3778.52 219.964   3 
  -2   0   5 3051.73 201.532   6 
  -2   0   5 3155.48 223.984   3 
  -2   0   6 3089.88 219.102   6 
  -2   0   6 3365.44 254.620   3 
  -2   0   7 845.743 141.242   3 
  -2   0   7 844.182 124.176   6 
  -2   0   8 257.480 91.8699   3 
  -2   0   9 13.0014 52.9630   3 
  -2   0  10 410.174 131.035   3 
  -2   0  11 3036.12 347.434   3 
  -2   0  11 3155.62 334.187   7 
  -2   1  -6 30.3074 30.1064   3 
  -2   1  -4 6064.37 253.665   7 
  -2   1  -1 22846.0 276.735   4 
  -2   1  -1 21991.5 262.094   1 
  -2   1   0 75065.0 514.035   4 
  -2   1   1 4882.03 106.554   5 
  -2   1   1 5736.08 189.092   3 
  -2   1   1 5749.87 185.346   4 
  -2   1   1 5390.53 146.797   2 
  -2   1   2 19232.4 377.421   3 
  -2   1   3 1645.88 126.070   3 
  -2   1   4 223.599 55.3919   3 
  -2   1   4 286.141 61.3620   6 
  -2   1   5 2968.41 197.261   6 
  -2   1   5 3163.57 220.313   3 
  -2   1   6 940.188 115.788   6 
  -2   1   6 1005.60 140.543   3 
  -2   1   7 3893.47 303.666   3 
  -2   1   7 3784.42 255.731   6 
  -2   1   8 1454.34 197.356   3 
  -2   1   9 73.6786 50.9735   3 
  -2   1  10 4.07288 43.3089   3 
  -2   1  11 400.962 120.069   3 
  -2   1  11 491.459 130.494   7 
  -2   2  -6 2346.79 227.222   3 
  -2   2  -5 976.702 131.070   3 
  -2   2  -4 9856.36 373.808   3 
  -2   2  -1 0.30480 15.6702   4 
  -2   2   0 88969.4 697.971   5 
  -2   2   0 73036.2 675.425   4 
  -2   2   1 27474.5 382.468   5 
  -2   2   1 26417.9 401.276   3 
  -2   2   2 352.480 48.9023   5 
  -2   2   2 405.389 55.6542   3 
  -2   2   3 489.507 68.4225   5 
  -2   2   3 530.446 72.1087   3 
  -2   2   4 1586.50 142.922   3 
  -2   2   4 1704.11 144.742   6 
  -2   2   5 14.4317 29.6341   6 
  -2   2   5 84.3505 39.9868   3 
  -2   2   6 12539.0 453.236   6 
  -2   2   6 13086.9 502.232   3 
  -2   2   7 124.487 47.1454   6 
  -2   2   7 182.151 71.4625   3 
  -2   2   8 1643.06 212.924   3 
  -2   2   9-69.0709 56.8875   3 
  -2   2  10 123.395 73.0148   3 
  -2   2  10-30.7936 68.6958   7 
  -2   2  11 1724.85 263.630   7 
  -2   3  -6 4778.45 321.185   3 
  -2   3  -5 2541.18 209.685   3 
  -2   3  -4 14578.9 454.567   3 
  -2   3  -1 1049.23 97.7281   5 
  -2   3  -1 987.447 102.483   4 
  -2   3   0 14.5811 23.7887   5 
  -2   3   0 47.0418 35.1981   4 
  -2   3   1 6024.04 226.374   5 
  -2   3   1 4947.39 176.216   3 
  -2   3   2 8.29091 17.1614   3 
  -2   3   2-16.3273 23.6559   5 
  -2   3   3 13.6086 16.5637   5 
  -2   3   3 90.3151 34.5347   3 
  -2   3   4 734.679 106.977   5 
  -2   3   4 800.291 103.123   3 
  -2   3   5 4140.57 258.419   3 
  -2   3   5 4117.50 280.714   4 
  -2   3   6 842.939 129.667   3 
  -2   3   6 761.845 136.063   4 
  -2   3   7 1576.59 191.936   3 
  -2   3   8 1636.97 216.873   3 
  -2   3   9 138.945 77.3680   3 
  -2   3  10 79.8087 72.6475   7 
  -2   3  10 68.3161 63.5124   3 
  -2   4  -5 173.269 57.2242   3 
  -2   4  -4 2674.09 194.673   3 
  -2   4  -3 5751.20 255.184   3 
  -2   4  -2 448.958 86.6398   4 
  -2   4  -2 454.525 83.5780   5 
  -2   4  -1 613.311 86.9709   5 
  -2   4  -1 642.486 92.1707   4 
  -2   4   0 2203.59 158.615   5 
  -2   4   1 14517.8 414.257   5 
  -2   4   1 14107.2 271.664   3 
  -2   4   2 336.265 54.0328   3 
  -2   4   2 242.972 58.0748   5 
  -2   4   3 3326.56 180.988   3 
  -2   4   3 2795.90 192.860   5 
  -2   4   4 180.385 62.2228   4 
  -2   4   4 71.7147 16.4307   2 
  -2   4   4 239.549 69.2772   5 
  -2   4   4 124.781 43.4469   3 
  -2   4   5 1365.14 152.236   3 
  -2   4   5 1306.63 170.724   4 
  -2   4   6 2831.56 237.588   3 
  -2   4   7 1915.40 211.035   3 
  -2   4   8 941.765 166.488   3 
  -2   4   9 758.617 168.914   3 
  -2   4   9 891.559 197.216   7 
  -2   4  10 2025.24 295.868   7 
  -2   5  -5 580.115 104.367   3 
  -2   5  -5 469.624 48.5948   1 
  -2   5  -4 1556.77 149.877   3 
  -2   5  -3 641.639 85.5518   3 
  -2   5  -3 711.557 123.605   5 
  -2   5  -2-4.77510 20.9166   5 
  -2   5  -2-10.2174 35.7725   4 
  -2   5  -2 3.10974 11.5759   3 
  -2   5  -1 180.262 65.3411   4 
  -2   5  -1 224.691 58.5643   5 
  -2   5   0 10706.7 395.214   5 
  -2   5   0 12590.8 265.904   3 
  -2   5   1 28815.5 666.983   5 
  -2   5   1 28892.9 371.283   3 
  -2   5   2 354.957 74.4337   5 
  -2   5   2 290.701 44.6379   3 
  -2   5   3 6672.15 246.321   3 
  -2   5   3 7101.11 367.504   4 
  -2   5   3 6738.54 331.189   5 
  -2   5   4 308.792 77.8279   4 
  -2   5   4 318.569 81.0791   5 
  -2   5   4 267.194 55.0111   3 
  -2   5   5 1618.51 200.943   5 
  -2   5   5 1859.04 167.909   3 
  -2   5   6 2612.03 221.837   3 
  -2   5   6 1510.26 98.0112   2 
  -2   5   7 4772.64 328.345   3 
  -2   5   7 2652.20 146.164   2 
  -2   5   8 28.2342 32.0914   3 
  -2   5   8-28.8113 36.8638   2 
  -2   5   8-72.2646 71.2303   7 
  -2   5   9 165.715 74.5790   7 
  -2   6  -6 202.364 36.6019   1 
  -2   6  -6 232.456 93.8970   5 
  -2   6  -5 10078.4 557.656   5 
  -2   6  -5 10629.0 432.042   3 
  -2   6  -4 1628.56 154.544   3 
  -2   6  -4 1491.07 205.063   5 
  -2   6  -3 26743.9 564.584   3 
  -2   6  -3 27026.4 816.744   5 
  -2   6  -2 12441.9 333.234   3 
  -2   6  -2 11812.5 484.497   5 
  -2   6  -2 12686.6 518.837   4 
  -2   6  -1 562.955 60.0248   3 
  -2   6  -1 644.937 108.731   5 
  -2   6  -1 622.099 111.090   4 
  -2   6   0 2787.96 225.069   5 
  -2   6   0 3001.86 238.654   4 
  -2   6   0 2248.78 94.4943   3 
  -2   6   1 4545.95 289.685   5 
  -2   6   1 4193.33 282.903   4 
  -2   6   2 632.821 55.4547   3 
  -2   6   2 820.025 125.712   5 
  -2   6   2 679.784 116.099   4 
  -2   6   3 766.179 73.1830   3 
  -2   6   3 791.171 129.419   5 
  -2   6   4 1216.15 159.701   5 
  -2   6   4 1289.39 116.108   3 
  -2   6   5 619.295 120.414   5 
  -2   6   5 608.619 89.4523   3 
  -2   6   6 36727.9 780.821   3 
  -2   6   6 37534.6 1009.31   7 
  -2   6   7 6328.39 445.366   7 
  -2   6   7 2902.77 131.757   2 
  -2   6   8 297.158 117.351   7 
  -2   6   9 449.050 149.758   7 
  -2   7  -8 643.183 168.024   5 
  -2   7  -7 129.517 87.9714   5 
  -2   7  -6 100.308 66.0364   5 
  -2   7  -5 151.781 85.5241   5 
  -2   7  -5 175.147 59.9500   3 
  -2   7  -4 8810.43 366.421   3 
  -2   7  -4 8604.46 538.452   5 
  -2   7  -3 398.539 95.6672   5 
  -2   7  -3 610.457 87.1277   3 
  -2   7  -2 3323.37 177.674   3 
  -2   7  -2 2744.14 252.292   5 
  -2   7  -1 656.745 57.4620   3 
  -2   7  -1 734.682 127.592   5 
  -2   7   0 475.886 108.547   5 
  -2   7   1 163.538 49.3783   7 
  -2   7   1 177.000 75.7021   5 
  -2   7   2 1518.62 157.269   7 
  -2   7   2 1805.56 205.336   5 
  -2   7   3 323.537 88.2272   5 
  -2   7   3 412.446 87.1321   7 
  -2   7   4 4845.08 332.549   7 
  -2   7   4 4651.96 329.438   5 
  -2   7   5 3220.49 283.127   7 
  -2   7   5 3548.18 298.858   5 
  -2   7   6 2181.59 263.254   5 
  -2   7   6 2211.50 244.549   7 
  -2   7   7 1142.82 192.910   7 
  -2   7   8 178.474 114.996   7 
  -2   8  -7 801.183 191.300   5 
  -2   8  -6 956.202 212.479   5 
  -2   8  -5-52.5086 85.1283   5 
  -2   8  -4 242.333 105.821   5 
  -2   8  -3 90.5647 52.4062   5 
  -2   8  -3 101.872 38.8934   3 
  -2   8  -2 155.286 89.7955   5 
  -2   8  -2 66.5450 25.7576   3 
  -2   8  -1 1368.91 190.611   5 
  -2   8   0 682.692 133.527   5 
  -2   8   1 4328.77 344.863   5 
  -2   8   2 2522.10 268.452   5 
  -2   8   3 233.886 83.1403   5 
  -2   8   4 2993.18 289.909   5 
  -2   8   4 2936.12 283.144   7 
  -2   8   5 1109.20 182.432   5 
  -2   8   5 1205.15 199.207   7 
  -2   8   6 111.200 69.6426   5 
  -2   9  -6 74.0767 77.3449   5 
  -2   9  -5 995.111 222.451   5 
  -2   9  -4 1134.00 226.669   5 
  -2   9  -3 258.827 112.298   5 
  -2   9  -2 797.886 169.775   5 
  -2   9  -1 382.359 113.897   5 
  -2   9   0 14.8183 45.4906   5 
  -2   9   1 11406.8 593.125   5 
  -2   9   2 618.520 144.742   5 
  -2   9   3 242.682 107.730   5 
  -2   9   4 171.582 81.6597   5 
  -2   9   5 1597.65 238.499   5 
  -2   9   6 144.905 86.4305   5 
  -2  10  -4 60.6844 91.2376   5 
  -2  10  -3 342.405 127.719   5 
  -2  10  -2 92.1896 70.8268   5 
  -2  10  -1 126.441 75.7911   5 
  -2  10   0 428.236 130.446   5 
  -2  10   1-5.29906 45.3840   5 
  -2  10   2 100.343 43.4737   5 
  -2  10   3 84.1769 60.0981   5 
  -2  10   4 149.053 92.5771   5 
  -2  10   5 91.2266 60.3056   5 
  -2  11   0 218.128 105.659   5 
  -2  11   1 15.1776 64.4869   5 
  -1 -10  -5 670.126 175.114   4 
  -1 -10  -4 2280.31 296.000   4 
  -1 -10  -3 5233.61 438.637   4 
  -1 -10  -2 415.276 147.934   4 
  -1 -10  -1 70.8934 87.2118   4 
  -1 -10   0 138.519 89.3446   4 
  -1 -10   1 186.140 71.5072   4 
  -1 -10   2 90.8671 84.2655   4 
  -1 -10   3 835.298 187.987   4 
  -1 -10   4 745.196 183.426   4 
  -1  -9  -6 128.296 77.3478   6 
  -1  -9  -5 485.282 146.595   4 
  -1  -9  -4 418.025 109.537   4 
  -1  -9  -3 264.848 105.426   4 
  -1  -9  -2 190.855 94.8440   4 
  -1  -9  -1-0.25955 51.9855   4 
  -1  -9   0 117.469 71.9295   4 
  -1  -9   1 54.3136 63.1900   4 
  -1  -9   2 218.487 72.8942   4 
  -1  -9   3 129.833 79.4758   4 
  -1  -9   4 546.528 146.870   4 
  -1  -9   5-4.72170 44.4391   4 
  -1  -9   6-25.0594 73.8305   4 
  -1  -8  -7 42.4806 49.1174   6 
  -1  -8  -6-59.0660 52.7622   6 
  -1  -8  -5 534.825 130.381   4 
  -1  -8  -4 1330.25 195.321   4 
  -1  -8  -3 1524.02 207.785   4 
  -1  -8  -2 4492.02 265.605   2 
  -1  -8  -2 5115.69 380.703   4 
  -1  -8  -1 8.33770 56.2051   4 
  -1  -8  -1 121.690 42.9779   2 
  -1  -8   0 3206.66 316.940   4 
  -1  -8   0 2747.90 240.423   2 
  -1  -8   1 1145.15 197.363   4 
  -1  -8   1 895.026 143.160   2 
  -1  -8   2 1319.40 205.058   4 
  -1  -8   3 3245.14 321.688   4 
  -1  -8   4 60.6320 78.1198   4 
  -1  -8   5 216.382 85.3788   4 
  -1  -8   6 1049.87 216.122   4 
  -1  -8   7 1417.73 261.683   4 
  -1  -7  -7 864.902 143.040   6 
  -1  -7  -6 1101.37 157.199   6 
  -1  -7  -5 1921.36 236.799   4 
  -1  -7  -4 716.814 137.304   4 
  -1  -7  -4 670.487 73.3057   3 
  -1  -7  -3 4577.56 113.713   3 
  -1  -7  -3 4286.73 107.310   3 
  -1  -7  -2 6554.62 394.450   4 
  -1  -7  -2 6473.09 301.548   2 
  -1  -7  -1 982.964 154.216   1 
  -1  -7  -1 907.173 127.010   2 
  -1  -7  -1 847.415 152.027   4 
  -1  -7   0 360.173 83.0041   2 
  -1  -7   0 472.722 123.053   4 
  -1  -7   0 460.159 97.2850   1 
  -1  -7   1 103.761 71.8620   4 
  -1  -7   1 179.447 64.4470   1 
  -1  -7   2 116.662 83.8009   4 
  -1  -7   3 178.795 67.7730   4 
  -1  -7   4 96.9556 72.8697   4 
  -1  -7   5 2330.06 277.877   4 
  -1  -7   6 10642.4 635.591   4 
  -1  -7   7 10070.7 652.451   4 
  -1  -7   8 42.7119 78.8812   4 
  -1  -6  -8 336.997 100.119   6 
  -1  -6  -7 387.861 103.411   6 
  -1  -6  -6 1195.21 150.979   6 
  -1  -6  -6 1034.48 139.447   3 
  -1  -6  -5 3866.35 231.661   3 
  -1  -6  -5 4201.11 331.866   4 
  -1  -6  -4 59.0292 38.9601   4 
  -1  -6  -4-9.65002 19.3488   3 
  -1  -6  -3 28608.4 438.534   3 
  -1  -6  -3 28896.3 753.351   4 
  -1  -6  -2 2851.89 88.0240   3 
  -1  -6  -2 4367.73 228.033   2 
  -1  -6  -2 4558.13 297.449   4 
  -1  -6  -1 2366.83 221.889   1 
  -1  -6  -1 1911.34 165.028   2 
  -1  -6  -1 2172.81 224.934   5 
  -1  -6  -1 2040.89 199.886   4 
  -1  -6   0 2962.79 223.031   1 
  -1  -6   0 2962.25 259.019   5 
  -1  -6   0 2815.57 241.303   4 
  -1  -6   0 2391.24 192.277   2 
  -1  -6   1 4632.72 261.001   1 
  -1  -6   1 4663.80 312.998   5 
  -1  -6   1 4661.96 313.789   4 
  -1  -6   2 4503.98 193.674   3 
  -1  -6   2 4418.58 299.174   5 
  -1  -6   2 4998.02 327.057   4 
  -1  -6   3 411.872 98.2973   4 
  -1  -6   3 404.646 72.2475   3 
  -1  -6   4 2319.93 199.309   3 
  -1  -6   4 2592.11 267.656   4 
  -1  -6   5 993.829 175.791   4 
  -1  -6   5 1029.55 145.246   3 
  -1  -6   6 3531.51 295.203   3 
  -1  -6   6 3400.95 337.431   4 
  -1  -6   7 186.086 97.8858   4 
  -1  -6   8-2.09650 43.7396   4 
  -1  -6   9 55.5909 47.4960   4 
  -1  -5  -8 129.761 57.6808   6 
  -1  -5  -7 395.169 78.4473   6 
  -1  -5  -6 1152.54 138.340   6 
  -1  -5  -6 1176.46 151.782   3 
  -1  -5  -5 2574.09 200.742   6 
  -1  -5  -5 2476.52 194.213   3 
  -1  -5  -4 3050.77 238.809   4 
  -1  -5  -4 3119.63 190.438   3 
  -1  -5  -3 221.673 56.4494   5 
  -1  -5  -3 194.896 55.1971   4 
  -1  -5  -3 199.591 42.6544   3 
  -1  -5  -2 5816.28 175.407   3 
  -1  -5  -2 5596.25 239.491   2 
  -1  -5  -2 5776.24 297.405   4 
  -1  -5  -2 6249.16 352.807   5 
  -1  -5  -1 4588.85 108.508   3 
  -1  -5  -1 6624.43 348.404   5 
  -1  -5  -1 6390.32 271.119   2 
  -1  -5  -1 6407.78 314.647   4 
  -1  -5   0 779.626 44.2167   3 
  -1  -5   0 1139.04 110.864   7 
  -1  -5   0 1313.74 136.546   1 
  -1  -5   0 1144.43 143.399   5 
  -1  -5   0 1114.70 134.705   4 
  -1  -5   0 1032.52 116.384   2 
  -1  -5   1 1099.51 115.797   1 
  -1  -5   1 1084.39 140.761   5 
  -1  -5   1 942.122 71.6270   3 
  -1  -5   1 1078.56 136.956   4 
  -1  -5   2 24.6601 35.3103   4 
  -1  -5   2 28.8716 17.2784   3 
  -1  -5   3 56.0470 22.3587   6 
  -1  -5   3 75.0901 38.3225   4 
  -1  -5   3 145.776 43.5800   3 
  -1  -5   4 242.564 73.8529   6 
  -1  -5   4 200.277 56.9378   3 
  -1  -5   4 110.865 55.4833   4 
  -1  -5   5 3432.26 261.264   3 
  -1  -5   5 3517.20 299.892   4 
  -1  -5   6 343.394 89.2044   3 
  -1  -5   6 402.858 112.707   4 
  -1  -5   7 2780.34 283.233   3 
  -1  -5   8 188.769 90.5652   3 
  -1  -5   8 118.619 50.1537   7 
  -1  -4  -9-20.3600 24.2493   6 
  -1  -4  -8 8008.99 340.282   6 
  -1  -4  -7 862.128 109.336   6 
  -1  -4  -6 124.322 42.2237   6 
  -1  -4  -6 28.3712 29.3998   3 
  -1  -4  -5 94.1954 37.8916   6 
  -1  -4  -5 166.236 56.9257   3 
  -1  -4  -4 7056.23 367.295   5 
  -1  -4  -4 6946.97 297.303   3 
  -1  -4  -4 7163.26 341.151   4 
  -1  -4  -3 5024.77 215.690   3 
  -1  -4  -3 5039.19 263.321   4 
  -1  -4  -2 14867.0 358.830   2 
  -1  -4  -2 15701.1 305.203   3 
  -1  -4  -2 15203.8 434.672   4 
  -1  -4  -1 63.8833 31.7436   2 
  -1  -4  -1 30.3559 21.6505   4 
  -1  -4  -1 26.1426 21.2453   7 
  -1  -4   0 7309.75 284.182   1 
  -1  -4   0 7429.62 164.945   3 
  -1  -4   0 7370.83 308.688   4 
  -1  -4   0 6904.25 262.498   2 
  -1  -4   1 108975. 1041.54   1 
  -1  -4   1 112612. 785.278   3 
  -1  -4   1 110294. 1201.31   5 
  -1  -4   1 111291. 1217.92   4 
  -1  -4   2 4016.51 183.303   3 
  -1  -4   2 3868.25 242.677   4 
  -1  -4   3 1426.39 130.936   3 
  -1  -4   3 1392.22 156.787   4 
  -1  -4   4 57.4663 43.0150   6 
  -1  -4   4 20.6530 28.5455   3 
  -1  -4   5 46.9047 42.8556   6 
  -1  -4   5-5.05460 23.5043   3 
  -1  -4   6 57.6965 29.0989   3 
  -1  -4   7 1499.20 201.759   3 
  -1  -4   8 658.639 153.931   3 
  -1  -4   9 35.8934 39.4856   7 
  -1  -3  -9 89.7318 38.2119   6 
  -1  -3  -8 36.9392 24.7679   6 
  -1  -3  -7 604.988 85.5969   6 
  -1  -3  -6 45.9796 17.0519   6 
  -1  -3  -6 52.5164 42.6034   3 
  -1  -3  -5-14.2686 30.1077   6 
  -1  -3  -5-4.72103 34.8189   5 
  -1  -3  -5 50.7097 30.5785   3 
  -1  -3  -4 6289.64 289.562   3 
  -1  -3  -4 5601.15 230.442   6 
  -1  -3  -3 15584.4 383.072   3 
  -1  -3  -3 16190.5 431.535   4 
  -1  -3  -2 979.119 83.6162   2 
  -1  -3  -2 1050.59 106.282   7 
  -1  -3  -2 1012.79 94.0380   4 
  -1  -3  -1 347.473 53.7358   2 
  -1  -3  -1 365.018 60.7554   4 
  -1  -3   0 14487.6 353.933   1 
  -1  -3   0 14380.1 223.847   3 
  -1  -3   0 14658.0 370.131   4 
  -1  -3   0 13898.0 326.094   2 
  -1  -3   1 9540.03 307.086   5 
  -1  -3   1 9941.81 230.589   3 
  -1  -3   1 9785.74 287.651   1 
  -1  -3   1 9275.31 311.632   4 
  -1  -3   2 10184.9 284.181   3 
  -1  -3   2 9730.59 350.514   4 
  -1  -3   3 778.338 94.5585   3 
  -1  -3   4 113.162 43.0221   3 
  -1  -3   4 217.535 63.7912   6 
  -1  -3   5 1608.59 170.450   3 
  -1  -3   5 1413.98 150.867   6 
  -1  -3   6 1218.82 150.290   6 
  -1  -3   6 1240.62 164.180   3 
  -1  -3   7 1303.42 183.870   3 
  -1  -3   8 936.750 166.868   3 
  -1  -3   9-25.7280 32.7719   3 
  -1  -3   9 29.2710 48.9420   7 
  -1  -3  10 87.1746 48.0013   7 
  -1  -2  -9 170.394 56.3653   6 
  -1  -2  -8 840.992 105.104   6 
  -1  -2  -7 68.1895 30.3570   6 
  -1  -2  -6 39.1377 17.3128   6 
  -1  -2  -6 119.270 63.0654   5 
  -1  -2  -6 75.7455 53.2765   3 
  -1  -2  -5 1040.52 144.121   5 
  -1  -2  -5 1186.37 141.890   3 
  -1  -2  -5 982.410 90.6892   6 
  -1  -2  -4 86521.0 788.149   6 
  -1  -2  -4 85599.8 1059.59   3 
  -1  -2  -3 70191.1 658.046   6 
  -1  -2  -3 71823.8 828.776   3 
  -1  -2  -2 69.2265 21.3972   4 
  -1  -2  -1 13491.1 286.733   2 
  -1  -2  -1 12940.5 274.102   4 
  -1  -2   0 712.819 65.6514   1 
  -1  -2   0 702.354 63.7227   2 
  -1  -2   0 768.330 51.6967   3 
  -1  -2   0 738.332 65.6249   4 
  -1  -2   1 23.4686 17.2955   3 
  -1  -2   1 11.3924 21.1893   4 
  -1  -2   1 17.9175 18.0283   5 
  -1  -2   1-2.48882 23.5819   1 
  -1  -2   2 35592.2 512.942   3 
  -1  -2   3 1565.51 128.895   3 
  -1  -2   4 8930.91 345.241   3 
  -1  -2   4 8308.80 316.714   6 
  -1  -2   5 16205.5 519.316   3 
  -1  -2   5 14636.5 451.772   6 
  -1  -2   6 9967.58 406.214   6 
  -1  -2   6 10047.4 442.959   3 
  -1  -2   7 1634.41 199.484   3 
  -1  -2   7 1718.47 183.573   6 
  -1  -2   8 442.156 114.405   3 
  -1  -2   9 84.4247 54.1494   7 
  -1  -2   9-8.99102 46.7889   3 
  -1  -2  10 2636.60 271.263   7 
  -1  -1  -9 1877.21 169.796   6 
  -1  -1  -8 958.305 111.880   6 
  -1  -1  -7 2122.38 149.907   6 
  -1  -1  -6 341.028 53.3480   6 
  -1  -1  -6 400.252 93.3493   3 
  -1  -1  -5 493.420 59.0016   6 
  -1  -1  -5 502.686 94.3017   3 
  -1  -1  -4 5748.57 276.511   3 
  -1  -1  -4 5861.43 178.116   6 
  -1  -1  -3 20685.1 448.049   3 
  -1  -1  -3 20781.3 294.929   6 
  -1  -1  -1 3796.09 106.544   4 
  -1  -1  -1 3386.42 121.925   2 
  -1  -1   0 75109.6 574.382   2 
  -1  -1   0 73217.0 480.567   4 
  -1  -1   1 702.905 50.6025   5 
  -1  -1   1 647.336 52.8966   3 
  -1  -1   2 155669. 1014.67   3 
  -1  -1   3 579.760 74.8594   3 
  -1  -1   4 2394.16 160.411   6 
  -1  -1   4 2676.72 182.947   3 
  -1  -1   5 3122.76 200.944   6 
  -1  -1   5 3504.11 238.689   3 
  -1  -1   6 1144.06 134.734   6 
  -1  -1   6 1152.67 148.768   3 
  -1  -1   7 68.1867 32.0041   6 
  -1  -1   7 99.2325 57.8091   3 
  -1  -1   8-55.0248 48.7298   6 
  -1  -1   8 7.98618 30.0454   3 
  -1  -1   9 796.316 170.677   3 
  -1  -1   9 761.361 143.393   7 
  -1  -1  10 91.2627 48.2697   7 
  -1  -1  11 13404.0 665.423   7 
  -1   0  -9 412.679 84.4173   6 
  -1   0  -8 605.375 91.7031   6 
  -1   0  -7 5869.09 264.249   6 
  -1   0  -6 12.3469 26.0004   6 
  -1   0  -6 121.629 63.7816   3 
  -1   0  -5 10041.8 275.564   6 
  -1   0  -4 24760.0 376.013   6 
  -1   0  -3 8989.65 182.626   6 
  -1   0  -2 6015.06 105.208   6 
  -1   0   1 314.853 35.4674   3 
  -1   0   2 4812.66 172.187   3 
  -1   0   3 3993.43 186.611   3 
  -1   0   3 3662.93 162.170   6 
  -1   0   4 8208.47 273.353   6 
  -1   0   4 8848.69 324.369   3 
  -1   0   5 3327.35 227.248   3 
  -1   0   5 2877.45 180.222   6 
  -1   0   6 6752.28 299.960   6 
  -1   0   6 6878.61 358.119   3 
  -1   0   7 1075.43 131.351   6 
  -1   0   7 1125.45 160.278   3 
  -1   0   8 995.440 169.092   3 
  -1   0   8 1187.24 151.798   6 
  -1   0   9 6652.89 450.067   3 
  -1   0   9 6548.92 407.856   7 
  -1   0  10 106.564 74.3898   7 
  -1   0  11 85.9056 74.6718   7 
  -1   1  -6 1449.56 176.466   3 
  -1   1  -6 1603.27 138.778   6 
  -1   1  -5 1309.79 117.113   6 
  -1   1  -2 615.912 58.4677   7 
  -1   1   0 87795.5 478.359   5 
  -1   1   1 53.8471 16.2069   5 
  -1   1   1 60.4344 15.4754   3 
  -1   1   2 83527.2 703.254   3 
  -1   1   3 484.475 63.1122   6 
  -1   1   3 499.134 66.5814   3 
  -1   1   4 8074.23 308.710   3 
  -1   1   4 7806.47 273.451   6 
  -1   1   5 6757.75 319.990   3 
  -1   1   5 6628.91 272.217   6 
  -1   1   6 5254.54 259.495   6 
  -1   1   6 5321.86 311.785   3 
  -1   1   7 1023.72 123.625   6 
  -1   1   7 1291.71 169.079   3 
  -1   1   8-54.9682 43.0656   6 
  -1   1   8-40.5236 39.4535   3 
  -1   1   9 621.587 141.252   3 
  -1   1   9 620.112 140.258   7 
  -1   1  10 262.677 110.779   7 
  -1   1  11 1056.51 203.249   7 
  -1   2  -6 3489.25 262.647   3 
  -1   2  -5 3079.26 228.508   3 
  -1   2  -4 38529.0 715.253   3 
  -1   2  -3 24047.4 486.546   3 
  -1   2  -2 8717.25 245.928   3 
  -1   2   0 91778.0 718.564   5 
  -1   2   1 4115.58 154.872   5 
  -1   2   1 3808.37 112.752   3 
  -1   2   2 2709.80 125.649   3 
  -1   2   2 2821.45 148.518   5 
  -1   2   3 1409.75 126.134   5 
  -1   2   3 1529.93 115.481   3 
  -1   2   4 235.134 54.0461   3 
  -1   2   5 26409.5 625.516   3 
  -1   2   5 27091.7 670.918   4 
  -1   2   6 19571.9 592.064   3 
  -1   2   6 18547.3 619.447   4 
  -1   2   7 166.667 61.5467   3 
  -1   2   7 189.519 50.8304   6 
  -1   2   8 71.4233 61.4031   3 
  -1   2   8-38.3916 50.0167   7 
  -1   2   9 20.2046 61.3693   7 
  -1   2  10 351.081 120.692   7 
  -1   2  11 215.772 91.8042   7 
  -1   3  -6 2921.41 240.567   3 
  -1   3  -5 2771.45 216.004   3 
  -1   3  -4 4594.17 251.185   3 
  -1   3  -3 3697.05 194.699   3 
  -1   3  -2 3404.02 155.179   3 
  -1   3  -2 2901.67 88.8254   1 
  -1   3  -1 5770.31 226.364   5 
  -1   3   0 33267.5 531.930   5 
  -1   3   1 4390.12 196.706   5 
  -1   3   1 4448.61 117.364   3 
  -1   3   2 15299.7 286.158   3 
  -1   3   2 15846.6 400.692   5 
  -1   3   3 358.036 69.7786   5 
  -1   3   3 348.976 55.7269   3 
  -1   3   4 1602.62 134.276   3 
  -1   3   4 1581.80 159.378   4 
  -1   3   5 6477.53 307.808   3 
  -1   3   5 6956.77 344.983   4 
  -1   3   6 1721.99 176.467   3 
  -1   3   6 1747.40 186.637   4 
  -1   3   7 9.99360 36.6892   3 
  -1   3   8-74.0477 54.7034   3 
  -1   3   8-47.0896 59.3225   7 
  -1   3   9 842.523 182.633   7 
  -1   3  10 245.036 87.5785   7 
  -1   4  -6 1916.97 196.330   3 
  -1   4  -5 1660.58 180.162   3 
  -1   4  -4 24.9096 26.7015   3 
  -1   4  -3 69.0981 17.5574   1 
  -1   4  -3 78.7677 38.4776   5 
  -1   4  -3 49.1194 29.0120   3 
  -1   4  -2 151.835 45.4857   5 
  -1   4  -2 163.256 36.9297   3 
  -1   4  -1 5202.10 157.147   3 
  -1   4  -1 5302.88 249.067   5 
  -1   4   0 14876.6 413.908   5 
  -1   4   0 12264.7 175.190   3 
  -1   4   1 129243. 1252.12   5 
  -1   4   1 118465. 492.696   3 
  -1   4   2 3999.21 224.913   5 
  -1   4   2 4295.03 146.078   3 
  -1   4   3 829.517 111.589   5 
  -1   4   3 822.618 79.2492   3 
  -1   4   4 9496.41 419.229   5 
  -1   4   4 10079.5 422.312   4 
  -1   4   4 8679.95 307.629   3 
  -1   4   5 3997.38 238.476   3 
  -1   4   5 4706.54 306.579   4 
  -1   4   6 1139.64 144.386   3 
  -1   4   6 1158.41 163.018   7 
  -1   4   7 70.2526 63.0601   7 
  -1   4   8 100.013 59.9547   7 
  -1   4   9 356.542 134.866   7 
  -1   5  -6 20.3801 36.7877   3 
  -1   5  -5 6495.88 330.811   3 
  -1   5  -5 6550.69 232.582   1 
  -1   5  -4 1110.49 124.043   3 
  -1   5  -4 1151.38 170.775   5 
  -1   5  -4 1144.00 85.5076   1 
  -1   5  -3 6162.16 261.992   3 
  -1   5  -3 5873.20 342.397   5 
  -1   5  -2 39.2960 28.5489   5 
  -1   5  -2 11.8915 15.0294   3 
  -1   5  -1 1234.72 76.5333   3 
  -1   5  -1 1164.17 132.109   5 
  -1   5   0 2086.54 181.961   5 
  -1   5   1 4609.76 269.660   5 
  -1   5   1 3552.09 189.602   7 
  -1   5   2 36.7769 28.4196   5 
  -1   5   2 5.36586 22.8076   7 
  -1   5   3 5225.69 295.183   5 
  -1   5   3 5939.81 324.019   4 
  -1   5   3 5825.84 305.628   7 
  -1   5   4 5858.73 342.198   4 
  -1   5   4 5442.20 330.170   5 
  -1   5   4 5456.15 317.777   7 
  -1   5   5 149.601 38.2159   2 
  -1   5   5 210.112 87.2556   5 
  -1   5   5 192.624 64.7198   7 
  -1   5   6 5062.78 220.332   2 
  -1   5   6 6478.50 401.652   7 
  -1   5   7 1509.94 127.790   2 
  -1   5   7 2061.84 247.804   7 
  -1   5   8 785.089 179.139   7 
  -1   5   8 486.724 81.0794   2 
  -1   5   9 179.250 40.2717   2 
  -1   6  -7 60.6262 44.6467   5 
  -1   6  -7 67.9024 32.1362   1 
  -1   6  -6 99.6233 35.0094   1 
  -1   6  -6 105.151 65.2024   5 
  -1   6  -5 269.538 70.8567   3 
  -1   6  -5 205.971 84.2308   5 
  -1   6  -5 185.593 38.2811   1 
  -1   6  -4 7055.04 331.605   3 
  -1   6  -4 6387.42 430.362   5 
  -1   6  -3 73.6168 44.1623   5 
  -1   6  -3 80.4370 32.9959   3 
  -1   6  -2 128.747 35.8536   3 
  -1   6  -2 83.4473 48.5172   5 
  -1   6  -2 87.7290 61.8929   4 
  -1   6  -1 4431.27 281.031   5 
  -1   6  -1 4151.75 128.866   3 
  -1   6  -1 4972.31 320.657   4 
  -1   6   0 6043.47 336.559   5 
  -1   6   0 6108.82 346.609   4 
  -1   6   1 3678.71 267.774   5 
  -1   6   1 3430.56 254.712   4 
  -1   6   2 532.376 103.238   5 
  -1   6   2 568.979 100.572   4 
  -1   6   3 2135.20 208.238   5 
  -1   6   3 2269.13 216.391   4 
  -1   6   3 2133.27 188.388   7 
  -1   6   4 404.005 97.1934   7 
  -1   6   4 378.162 89.6887   5 
  -1   6   5 25546.7 807.127   5 
  -1   6   5 25676.0 777.338   7 
  -1   6   6 181.417 75.0802   7 
  -1   6   6 56.6447 25.1462   2 
  -1   6   7 2471.31 283.321   7 
  -1   6   7 1867.67 139.713   2 
  -1   7  -9-60.5904 77.0040   5 
  -1   7  -8 2.95235 51.3537   5 
  -1   7  -7-81.3486 74.8822   5 
  -1   7  -6 148.597 75.5269   5 
  -1   7  -5 24785.3 918.032   5 
  -1   7  -5 26071.2 716.732   3 
  -1   7  -4 13358.9 445.702   3 
  -1   7  -4 12804.8 628.747   5 
  -1   7  -3 3754.84 320.525   5 
  -1   7  -3 4106.47 210.574   3 
  -1   7  -2 525.731 63.8027   3 
  -1   7  -2 386.366 99.6443   5 
  -1   7  -1 1448.71 176.940   5 
  -1   7   0 260.270 80.2006   5 
  -1   7   1 312.374 92.2615   5 
  -1   7   2 603.215 123.529   5 
  -1   7   3 1259.59 171.287   5 
  -1   7   4 2914.14 268.996   5 
  -1   7   5 2234.94 244.966   5 
  -1   7   6 1992.52 256.480   5 
  -1   8  -8 15.1937 49.5763   5 
  -1   8  -7 346.141 137.621   5 
  -1   8  -6 367.794 128.145   5 
  -1   8  -5 1976.77 277.020   5 
  -1   8  -4 578.563 149.415   5 
  -1   8  -3 1065.78 184.836   5 
  -1   8  -3 986.902 102.516   3 
  -1   8  -2 20.6061 11.6087   3 
  -1   8  -2-3.61250 38.3543   5 
  -1   8  -1 2070.30 229.517   5 
  -1   8   0 1175.69 173.499   5 
  -1   8   1 1598.21 208.342   5 
  -1   8   2 2141.96 244.151   5 
  -1   8   3 148.122 70.5001   5 
  -1   8   4 4352.07 350.137   5 
  -1   8   5 1931.59 241.094   5 
  -1   8   6 442.099 132.804   5 
  -1   9  -6 223.488 126.857   5 
  -1   9  -5 1163.44 235.054   5 
  -1   9  -4 370.329 130.541   5 
  -1   9  -3-12.8416 46.7947   5 
  -1   9  -2 905.859 172.916   5 
  -1   9  -1 25.6374 39.8698   5 
  -1   9   0-5.47096 33.3855   5 
  -1   9   1 398.143 112.782   5 
  -1   9   2 23.0146 54.2839   5 
  -1   9   3-56.0217 88.0208   5 
  -1   9   4 734.448 158.953   5 
  -1   9   5 739.888 170.337   5 
  -1   9   6 517.397 146.012   5 
  -1  10  -5 272.619 143.557   5 
  -1  10  -4 455.362 166.575   5 
  -1  10  -3 59.1885 42.8067   5 
  -1  10  -2 559.828 142.088   5 
  -1  10  -1 234.895 95.6993   5 
  -1  10   0 25.6138 46.5988   5 
  -1  10   1 148.843 75.2302   5 
  -1  10   2 175.719 72.6942   5 
  -1  10   3-106.565 88.2637   5 
  -1  10   4 118.491 72.2733   5 
   0 -10  -6 313.293 118.751   6 
   0 -10  -5 115.832 69.1872   4 
   0 -10  -4 1089.34 203.572   4 
   0 -10  -3 20.1559 52.3639   4 
   0 -10  -2 164.617 79.5400   4 
   0 -10  -1 137.931 41.3848   4 
   0 -10   0 334.797 125.710   4 
   0 -10   1 3.55141 58.8847   4 
   0 -10   2 517.047 147.792   4 
   0 -10   3 624.166 168.295   4 
   0 -10   4 291.135 112.158   4 
   0  -9  -7 561.428 116.266   6 
   0  -9  -6 86.7347 67.3303   6 
   0  -9  -5 966.697 182.435   4 
   0  -9  -4 163.162 78.2799   4 
   0  -9  -3 2917.65 306.476   4 
   0  -9  -2 280.054 97.3234   4 
   0  -9  -1 178.703 85.8520   4 
   0  -9   0 1210.97 207.833   4 
   0  -9   1 11166.7 615.957   4 
   0  -9   2 189.880 90.1325   4 
   0  -9   3 409.955 122.020   4 
   0  -9   4 772.860 170.694   4 
   0  -9   5 483.501 145.955   4 
   0  -9   6 288.031 110.364   4 
   0  -8  -7-2.61984 48.3153   6 
   0  -8  -6 1457.48 202.615   6 
   0  -8  -5 450.578 123.063   4 
   0  -8  -4 591.038 130.071   4 
   0  -8  -3 2972.84 287.732   4 
   0  -8  -2 2661.38 180.574   2 
   0  -8  -2 2976.57 296.657   4 
   0  -8  -1 85.8889 65.3988   4 
   0  -8  -1 113.958 55.4334   2 
   0  -8   0 2073.81 197.216   1 
   0  -8   0 1907.95 251.044   4 
   0  -8   0 1488.60 155.872   2 
   0  -8   1 4450.55 363.982   4 
   0  -8   1 4364.53 275.111   1 
   0  -8   2 479.171 128.993   4 
   0  -8   3 220.460 96.6379   4 
   0  -8   4 84.6180 69.2112   4 
   0  -8   5 318.938 112.593   4 
   0  -8   6 229.977 122.254   4 
   0  -8   7 61.7644 72.2749   4 
   0  -7  -8 49.5104 67.2476   6 
   0  -7  -7 662.827 133.143   6 
   0  -7  -6 172.931 71.2867   6 
   0  -7  -5 4995.25 243.618   3 
   0  -7  -5 5606.28 399.769   4 
   0  -7  -4 2342.85 130.922   3 
   0  -7  -4 2966.65 270.473   4 
   0  -7  -3 6604.21 395.964   4 
   0  -7  -2 1141.42 114.604   2 
   0  -7  -2 1127.89 169.843   4 
   0  -7  -1 1144.32 152.651   1 
   0  -7  -1 856.690 107.862   2 
   0  -7  -1 909.547 148.164   4 
   0  -7   0 1781.46 214.702   4 
   0  -7   0 1289.40 139.431   2 
   0  -7   0 1555.85 156.414   1 
   0  -7   1 217.938 74.3167   4 
   0  -7   1 311.088 67.4203   1 
   0  -7   2 118.211 63.1340   4 
   0  -7   3 1000.63 160.607   4 
   0  -7   4 1707.38 222.515   4 
   0  -7   5 991.809 182.011   4 
   0  -7   6 4965.66 422.168   4 
   0  -7   7 493.901 162.261   4 
   0  -7   8 60.0874 78.2941   4 
   0  -6  -8 694.258 128.072   6 
   0  -6  -7 686.995 114.410   6 
   0  -6  -7 595.306 103.314   3 
   0  -6  -6 1639.30 173.584   3 
   0  -6  -6 1532.24 177.013   6 
   0  -6  -5 23046.5 559.472   3 
   0  -6  -5 25326.0 798.792   4 
   0  -6  -5 23890.7 696.591   6 
   0  -6  -4 62107.7 780.637   3 
   0  -6  -4 64447.7 1196.86   4 
   0  -6  -3 4.46087 48.5245   4 
   0  -6  -3 40.7734 22.2915   3 
   0  -6  -2 695.878 118.996   4 
   0  -6  -2 609.883 74.5844   2 
   0  -6  -2 718.086 127.641   5 
   0  -6  -1 949.955 148.999   5 
   0  -6  -1 902.230 101.863   2 
   0  -6  -1 1036.29 145.230   4 
   0  -6   0 96.9865 46.7848   4 
   0  -6   0 61.7881 34.9661   5 
   0  -6   0 97.3314 46.1789   1 
   0  -6   1 967.093 140.361   4 
   0  -6   1 688.339 125.584   5 
   0  -6   1 892.587 104.079   1 
   0  -6   2 175.376 65.1672   4 
   0  -6   3 1905.81 210.463   4 
   0  -6   4 9625.68 491.267   4 
   0  -6   5 11275.3 567.704   4 
   0  -6   6 1470.91 210.703   4 
   0  -6   7 5158.13 426.709   4 
   0  -6   8 241.880 106.165   4 
   0  -6   9 54.4144 56.6087   4 
   0  -5  -9 96.8852 51.0122   6 
   0  -5  -8 30.1903 44.5897   6 
   0  -5  -7 1021.49 142.048   6 
   0  -5  -7 975.123 148.631   3 
   0  -5  -6 337.233 76.0895   6 
   0  -5  -6 365.334 84.0331   3 
   0  -5  -5 3974.28 259.059   6 
   0  -5  -5 4157.62 243.798   3 
   0  -5  -4 4244.41 302.854   5 
   0  -5  -4 3917.77 203.566   3 
   0  -5  -4 4269.92 285.400   4 
   0  -5  -3 375.782 76.8963   4 
   0  -5  -3 502.971 106.695   5 
   0  -5  -3 346.575 48.1513   3 
   0  -5  -2 31.3410 21.3228   2 
   0  -5  -2 5.05193 7.11245   3 
   0  -5  -2-1.85774 23.9422   4 
   0  -5  -1 13362.7 454.836   4 
   0  -5  -1 12452.5 334.012   2 
   0  -5   0 68.6423 26.1247   4 
   0  -5   0 213.594 52.0872   1 
   0  -5   1 47824.3 673.656   1 
   0  -5   1 50292.0 911.134   4 
   0  -5   2 8937.54 401.067   4 
   0  -5   3 163.468 61.5978   4 
   0  -5   4-11.0289 48.3649   6 
   0  -5   4 58.0475 53.1999   4 
   0  -5   5 1409.48 171.330   6 
   0  -5   5 1608.56 203.870   4 
   0  -5   6-3.63318 54.1059   4 
   0  -4  -9 59.7215 42.3891   6 
   0  -4  -8 1965.57 182.290   6 
   0  -4  -7 310.850 72.5979   6 
   0  -4  -7 238.390 84.0551   3 
   0  -4  -6 4934.35 274.756   6 
   0  -4  -6 5099.87 308.375   3 
   0  -4  -5 4858.13 258.897   6 
   0  -4  -5 5646.83 338.777   5 
   0  -4  -5 5024.18 277.597   3 
   0  -4  -4 5237.28 312.199   5 
   0  -4  -4 4951.54 239.579   3 
   0  -4  -4 4932.04 286.885   4 
   0  -4  -3 928.149 82.7509   3 
   0  -4  -3 915.221 113.180   4 
   0  -4  -2 29.6420 14.1983   2 
   0  -4  -2 17.5223 33.1662   4 
   0  -4  -2 18.9464 10.6277   3 
   0  -4  -1 710.542 94.6804   4 
   0  -4  -1 542.460 63.1570   2 
   0  -4   0 1497.47 139.392   4 
   0  -4   1 7002.81 229.574   1 
   0  -4   1 7346.23 313.234   4 
   0  -4   2 1440.36 143.701   4 
   0  -4   3 158.462 51.0912   3 
   0  -4   3 86.1284 55.9713   4 
   0  -4   3 137.547 53.8220   6 
   0  -4   4 441.551 99.8460   4 
   0  -4   4 546.612 96.0884   6 
   0  -4   4 405.732 80.0236   3 
   0  -4   5 5005.49 313.098   3 
   0  -4   5 4800.79 195.916   7 
   0  -4   5 5044.80 298.223   6 
   0  -4   6 1561.10 175.126   6 
   0  -3 -10 3784.41 269.809   6 
   0  -3  -9 82.0588 39.3317   6 
   0  -3  -8 64.4046 38.1470   6 
   0  -3  -7 1228.60 135.801   6 
   0  -3  -6 4417.10 302.186   5 
   0  -3  -6 3824.95 274.185   3 
   0  -3  -6 4108.95 233.173   6 
   0  -3  -5 1235.01 146.258   5 
   0  -3  -5 1269.92 142.160   3 
   0  -3  -5 1176.10 118.753   6 
   0  -3  -4 3337.27 187.743   6 
   0  -3  -4 3883.59 240.685   5 
   0  -3  -4 3630.83 209.490   3 
   0  -3  -3 16131.0 374.027   3 
   0  -3  -3 15633.6 433.354   4 
   0  -3  -2 2060.80 102.974   3 
   0  -3  -2 2054.67 140.731   4 
   0  -3  -1 703.003 60.5165   2 
   0  -3  -1 790.677 85.3193   4 
   0  -3   0 4540.57 203.946   4 
   0  -3   1 17129.9 414.870   4 
   0  -3   1 17846.0 317.402   1 
   0  -3   1 17330.6 266.522   3 
   0  -3   2 162.626 50.3243   4 
   0  -3   2 198.101 41.7379   3 
   0  -3   3 293.216 62.6656   6 
   0  -3   3 291.101 56.8796   3 
   0  -3   4 444.314 75.8868   6 
   0  -3   4 467.528 83.1932   3 
   0  -3   5 18800.8 529.191   6 
   0  -3   5 19743.3 581.201   3 
   0  -3   6 3936.60 291.665   3 
   0  -3   6 4043.41 222.498   7 
   0  -3   6 3842.08 248.735   6 
   0  -3   7 594.312 106.767   6 
   0  -3   7 767.029 110.711   7 
   0  -2 -10 229.353 71.7834   6 
   0  -2  -9 2671.59 211.765   6 
   0  -2  -8 218.728 62.6567   6 
   0  -2  -7 271.625 61.5601   6 
   0  -2  -6 4301.16 226.071   6 
   0  -2  -6 4493.74 294.466   5 
   0  -2  -6 4150.07 287.319   3 
   0  -2  -5 464.686 70.4176   6 
   0  -2  -5 450.789 80.7089   5 
   0  -2  -5 494.628 94.7440   3 
   0  -2  -4 27063.6 502.265   6 
   0  -2  -4 27262.8 584.567   5 
   0  -2  -4 27324.5 586.686   3 
   0  -2  -3 6409.04 220.968   6 
   0  -2  -3 6784.74 247.641   3 
   0  -2  -2 6830.49 196.898   3 
   0  -2  -2 6247.09 217.081   4 
   0  -2  -1 606.353 36.6600   3 
   0  -2  -1 463.353 40.0073   2 
   0  -2  -1 559.954 58.4707   4 
   0  -2   0 36.7142 20.8103   4 
   0  -2   1 70261.6 525.509   3 
   0  -2   1 71980.7 528.978   1 
   0  -2   2 66977.6 685.811   3 
   0  -2   3 2708.09 165.769   3 
   0  -2   3 2595.50 154.665   6 
   0  -2   4 854.725 95.0356   6 
   0  -2   4 669.657 95.4847   3 
   0  -2   5 5067.54 288.060   3 
   0  -2   5 4863.22 245.360   6 
   0  -2   6 3898.72 240.929   6 
   0  -2   6 3944.88 281.975   3 
   0  -2   6 4196.84 234.167   7 
   0  -2   7 274.581 82.6633   3 
   0  -2   7 270.696 76.1073   6 
   0  -2   7 363.918 82.3602   7 
   0  -2   8 2240.15 212.712   6 
   0  -2   8 2338.64 217.660   7 
   0  -1 -10 66.5727 53.7553   6 
   0  -1  -9 1495.39 164.265   6 
   0  -1  -8 108.617 42.3944   6 
   0  -1  -7 1328.03 133.111   6 
   0  -1  -6 4873.30 311.314   3 
   0  -1  -6 4786.20 229.034   6 
   0  -1  -5 11518.0 334.204   6 
   0  -1  -5 10737.1 417.678   3 
   0  -1  -4 474.510 62.8112   6 
   0  -1  -4 464.036 77.8505   3 
   0  -1  -3 3961.63 155.692   6 
   0  -1  -3 3961.97 194.089   3 
   0  -1  -2 12319.6 239.346   6 
   0  -1  -2 12176.7 272.692   3 
   0  -1  -1 52370.7 434.585   4 
   0  -1   1 2563.53 95.2121   3 
   0  -1   2 39596.5 504.838   3 
   0  -1   3 3902.90 192.582   3 
   0  -1   3 3537.28 155.436   6 
   0  -1   4 5696.83 224.664   6 
   0  -1   4 5683.47 267.175   3 
   0  -1   5 141.388 40.4828   6 
   0  -1   5 134.160 48.9738   3 
   0  -1   6 1081.02 121.379   6 
   0  -1   6 1034.16 145.628   3 
   0  -1   7 12.0449 22.8144   3 
   0  -1   7 39.9851 43.8401   6 
   0  -1   7 32.3909 38.0963   7 
   0  -1   8 63.0064 40.6262   6 
   0  -1   8 125.385 63.8437   7 
   0  -1   9 773.535 130.261   6 
   0   0 -10 576.324 106.255   6 
   0   0  -9 10555.7 449.683   6 
   0   0  -8 1299.51 151.099   6 
   0   0  -7 286.617 70.5461   6 
   0   0  -6 675.568 90.3445   6 
   0   0  -6 714.687 121.140   3 
   0   0  -5 61.0506 28.5638   6 
   0   0  -4 5273.18 197.088   6 
   0   0  -3 3304.66 135.535   6 
   0   0  -2 12702.5 217.820   6 
   0   0   2 12683.8 213.712   6 
   0   0   2 14097.2 293.365   3 
   0   0   3 2931.87 125.744   6 
   0   0   3 3220.51 170.521   3 
   0   0   4 4956.07 187.463   6 
   0   0   4 5047.00 246.182   3 
   0   0   5 153.876 51.1138   3 
   0   0   5 51.6313 24.2014   6 
   0   0   6 652.744 110.097   3 
   0   0   6 745.410 92.7329   6 
   0   0   6 573.242 98.2166   7 
   0   0   7 225.770 55.6488   6 
   0   0   7 214.187 71.5833   3 
   0   0   7 245.315 64.1240   7 
   0   0   8 1399.02 153.175   6 
   0   0   8 1331.70 173.153   7 
   0   0   9 11604.9 550.586   7 
   0   0   9 11380.7 485.388   6 
   0   1 -10 136.958 55.3924   6 
   0   1  -9 924.245 133.564   6 
   0   1  -8 49.8169 39.8469   6 
   0   1  -7 28.4760 33.7260   6 
   0   1  -6 915.598 138.216   3 
   0   1  -6 1017.20 117.948   6 
   0   1  -5 182.400 45.0645   6 
   0   1  -4 5951.50 235.434   6 
   0   1  -3 3519.31 160.617   6 
   0   1  -2 38043.6 456.926   6 
   0   1   1 52575.2 376.714   3 
   0   1   1 53247.3 472.717   5 
   0   1   2 12094.8 265.633   3 
   0   1   3 3722.09 145.795   6 
   0   1   3 3746.17 182.443   3 
   0   1   4 580.297 67.2772   6 
   0   1   4 512.848 80.2484   3 
   0   1   5 12293.0 347.910   6 
   0   1   5 11392.5 417.141   3 
   0   1   6 4596.95 293.065   3 
   0   1   6 4745.07 230.260   6 
   0   1   6 4346.59 287.006   7 
   0   1   7 1301.72 128.810   6 
   0   1   7 1395.39 177.772   7 
   0   1   8 124.789 66.5505   7 
   0   1   8 84.7863 32.8699   6 
   0   1   9 1369.50 156.216   6 
   0   1   9 1432.05 205.377   7 
   0   2  -6 4033.88 280.377   3 
   0   2  -6 4040.30 254.898   6 
   0   2  -5 5153.71 290.851   3 
   0   2  -5 4704.08 252.474   6 
   0   2  -4 847.226 108.354   3 
   0   2  -3 2846.10 170.288   3 
   0   2  -2 65809.8 666.591   3 
   0   2  -1 63139.6 478.462   1 
   0   2  -1 65827.3 475.095   3 
   0   2   0 80.0431 32.4371   5 
   0   2   1 484.163 61.3402   5 
   0   2   1 462.686 41.9106   2 
   0   2   1 548.582 55.5749   7 
   0   2   2 6359.92 223.069   7 
   0   2   2 6116.55 180.795   3 
   0   2   2 6020.64 230.961   5 
   0   2   2 5700.90 151.198   2 
   0   2   3 6846.09 246.329   3 
   0   2   3 6650.96 266.620   4 
   0   2   4 27289.3 569.170   3 
   0   2   4 25510.7 587.592   4 
   0   2   4 26124.2 609.674   7 
   0   2   5 378.413 80.5475   3 
   0   2   5 242.581 68.0093   4 
   0   2   5 338.680 79.7965   7 
   0   2   6 3741.60 281.388   4 
   0   2   6 3682.29 279.887   7 
   0   2   7 204.316 79.8008   4 
   0   2   7 202.208 82.1971   7 
   0   2   8 352.924 106.131   7 
   0   3  -6 3933.27 279.510   3 
   0   3  -5 19406.8 565.166   3 
   0   3  -4 460.162 76.2366   3 
   0   3  -3 396.559 66.1616   3 
   0   3  -2 202.150 31.9284   1 
   0   3  -2 298.900 53.2608   5 
   0   3  -2 227.906 40.6729   3 
   0   3  -1 17623.1 399.603   5 
   0   3  -1 17985.4 260.731   3 
   0   3   0 4568.78 200.687   5 
   0   3   1 724.381 83.6307   5 
   0   3   2 2123.23 151.849   5 
   0   3   2 2013.06 105.098   2 
   0   3   2 1908.69 138.767   4 
   0   3   2 2178.19 138.490   7 
   0   3   3 15876.1 471.001   5 
   0   3   3 15070.3 316.885   2 
   0   3   3 15597.7 437.570   4 
   0   3   3 15598.1 440.506   7 
   0   3   4 3770.90 229.747   4 
   0   3   4 3501.44 234.532   7 
   0   3   5 1179.21 138.498   4 
   0   3   5 1273.31 151.485   7 
   0   3   6 3809.34 280.805   4 
   0   3   6 4184.74 308.000   7 
   0   3   7 1272.74 186.861   7 
   0   4  -6 1419.78 170.825   3 
   0   4  -5 5362.03 305.327   3 
   0   4  -4 400.314 76.3448   3 
   0   4  -3 155.053 38.0662   1 
   0   4  -3 136.656 54.6953   5 
   0   4  -3 193.290 47.3371   3 
   0   4  -2 1376.05 98.0788   1 
   0   4  -2 1490.45 140.871   5 
   0   4  -2 1452.81 104.442   3 
   0   4  -1 7418.39 298.638   5 
   0   4  -1 8324.12 188.209   3 
   0   4   0 1528.24 136.419   5 
   0   4   1 657.343 88.6156   5 
   0   4   2 52.3044 38.6872   5 
   0   4   2 49.5584 25.4546   4 
   0   4   3 848.819 115.425   5 
   0   4   3 963.657 86.3752   2 
   0   4   3 881.095 107.223   4 
   0   4   3 872.433 111.055   7 
   0   4   4 4764.51 303.659   5 
   0   4   4 4773.68 210.880   2 
   0   4   4 5155.87 293.492   4 
   0   4   4 4788.76 288.354   7 
   0   4   5 4450.89 214.117   2 
   0   4   5 4920.81 312.890   4 
   0   4   5 5081.42 319.207   7 
   0   4   6 3825.22 212.243   2 
   0   4   6 4269.23 323.631   4 
   0   5  -6 66.9045 52.0580   3 
   0   5  -5 1444.43 192.266   5 
   0   5  -5 1534.17 169.205   3 
   0   5  -5 1728.42 141.789   1 
   0   5  -4 45.5408 30.0578   3 
   0   5  -4-11.5177 26.8410   5 
   0   5  -4-11.9859 22.3330   1 
   0   5  -3 173.813 47.0431   3 
   0   5  -3 234.526 77.6680   5 
   0   5  -3 235.570 43.5309   1 
   0   5  -2 8909.78 382.855   5 
   0   5  -2 10992.3 296.846   3 
   0   5  -1 45449.0 828.484   5 
   0   5  -1 43904.6 398.490   3 
   0   5   0 206.842 58.6990   5 
   0   5   1 12965.2 451.561   5 
   0   5   1 13124.2 451.481   4 
   0   5   2 26.5335 26.4987   4 
   0   5   2 31.6274 28.0918   5 
   0   5   3 476.790 91.1839   4 
   0   5   3 427.271 91.5388   5 
   0   5   4 4002.14 289.477   5 
   0   5   4 4001.72 276.215   4 
   0   5   4 3780.28 188.727   2 
   0   5   5 3748.98 211.383   2 
   0   5   5 4103.95 304.267   4 
   0   5   6 259.327 62.9188   2 
   0   5   7 744.619 97.9378   2 
   0   5   8 23.8089 23.7905   2 
   0   5   9-70.5633 49.6256   2 
   0   6 -10 150.377 81.7009   5 
   0   6  -9-65.5474 74.4025   5 
   0   6  -8 272.953 72.9359   1 
   0   6  -8 191.072 76.2417   5 
   0   6  -7 3880.77 337.666   5 
   0   6  -7 4546.08 261.185   1 
   0   6  -6 1267.95 196.021   5 
   0   6  -6 1478.81 140.893   1 
   0   6  -5 10766.8 361.735   1 
   0   6  -5 10953.8 564.160   5 
   0   6  -5 11292.0 453.473   3 
   0   6  -4 7995.22 294.350   1 
   0   6  -4 8773.57 484.147   5 
   0   6  -4 9374.99 365.711   3 
   0   6  -3 1917.24 211.082   5 
   0   6  -3 2194.00 159.535   3 
   0   6  -2 381.598 58.7353   3 
   0   6  -2 273.934 74.4494   5 
   0   6  -1 810.620 125.999   5 
   0   6  -1 982.800 150.860   4 
   0   6   0 145.070 66.7918   5 
   0   6   0 149.771 61.3004   4 
   0   6   1 901.248 132.831   5 
   0   6   1 927.215 133.417   4 
   0   6   2 598.716 106.683   5 
   0   6   2 757.801 123.503   4 
   0   6   3 42.1451 35.4429   4 
   0   6   3-9.85723 42.9818   5 
   0   6   4 61245.1 1193.26   5 
   0   6   5 23954.8 798.346   5 
   0   6   6 1405.46 135.714   2 
   0   6   7 615.724 100.255   2 
   0   6   8 683.245 108.519   2 
   0   7  -9 63.0960 49.0005   5 
   0   7  -8-45.2638 54.4281   5 
   0   7  -7 627.589 144.299   5 
   0   7  -6 4845.62 258.919   1 
   0   7  -6 5146.14 433.572   5 
   0   7  -5 804.786 122.711   3 
   0   7  -5 874.466 173.416   5 
   0   7  -4 1753.86 236.053   5 
   0   7  -4 1832.02 166.569   3 
   0   7  -3 910.725 162.652   5 
   0   7  -3 1009.74 110.285   3 
   0   7  -2 71.9492 22.5680   3 
   0   7  -2 25.9261 36.7941   5 
   0   7  -1 281.416 97.2693   5 
   0   7   0 1541.12 195.890   5 
   0   7   1 964.956 155.299   5 
   0   7   2 1300.36 182.468   5 
   0   7   3 6764.13 401.882   5 
   0   7   4 2881.44 274.568   5 
   0   7   5 5194.31 391.369   5 
   0   8  -8 565.004 157.247   5 
   0   8  -7 111.260 65.3507   5 
   0   8  -6 101.893 85.0933   5 
   0   8  -5 457.910 135.634   5 
   0   8  -4 15.8472 44.6730   5 
   0   8  -3 167.110 72.3096   5 
   0   8  -2 481.999 118.432   5 
   0   8  -1 3970.30 328.215   5 
   0   8   0 1619.53 219.050   5 
   0   8   1 39.3615 39.2832   5 
   0   8   2 3013.21 290.047   5 
   0   8   3 2718.57 273.407   5 
   0   8   4 607.808 135.074   5 
   0   8   5 551.140 141.721   5 
   0   8   6 1387.03 228.028   5 
   0   9  -7 573.034 170.735   5 
   0   9  -6 451.461 140.429   5 
   0   9  -5 367.675 118.140   5 
   0   9  -4 907.401 196.987   5 
   0   9  -3 558.363 143.540   5 
   0   9  -2 120.492 75.8247   5 
   0   9  -1 10398.5 579.927   5 
   0   9   0 974.030 175.793   5 
   0   9   1 148.872 76.5556   5 
   0   9   2 175.763 105.152   5 
   0   9   3 2276.13 274.378   5 
   0   9   4 145.673 82.3598   5 
   0   9   5 699.773 170.941   5 
   0   9   6 203.350 94.7832   5 
   0  10  -5-60.5307 87.0601   5 
   0  10  -4 200.106 96.8601   5 
   0  10  -3 410.879 141.263   5 
   0  10  -2 407.725 124.134   5 
   0  10  -1-59.3013 79.3832   5 
   0  10   0 361.711 123.085   5 
   0  10   1 148.669 87.1708   5 
   0  10   2-18.3680 61.4736   5 
   0  10   3-99.2404 67.8452   5 
   0  10   4 939.201 200.561   5 
   1 -10  -6 870.567 181.433   6 
   1 -10  -5 5189.00 463.695   4 
   1 -10  -4 196.744 107.848   4 
   1 -10  -3-23.1773 47.6826   4 
   1 -10  -2 332.813 122.899   4 
   1 -10  -1 370.173 130.255   4 
   1 -10   0-21.2776 40.6172   4 
   1 -10   1 449.624 138.462   4 
   1 -10   2 868.452 194.275   4 
   1 -10   3 144.894 104.665   4 
   1 -10   4 586.804 163.928   4 
   1  -9  -8 494.724 141.956   6 
   1  -9  -7 123.764 104.884   6 
   1  -9  -6 707.630 162.271   6 
   1  -9  -5 679.715 164.057   4 
   1  -9  -4 819.963 161.711   4 
   1  -9  -3 114.559 72.2185   4 
   1  -9  -2 98.8937 73.1821   4 
   1  -9  -1 494.138 140.441   4 
   1  -9   0 158.802 107.832   4 
   1  -9   0 181.642 58.0926   1 
   1  -9   1-66.4040 56.2006   1 
   1  -9   1-64.1371 55.5160   4 
   1  -9   2 1138.48 200.718   4 
   1  -9   3 37.7743 56.2636   4 
   1  -9   4 48.5643 69.3344   4 
   1  -9   5 1276.08 229.037   4 
   1  -9   6 149.030 101.053   4 
   1  -8  -8 44.5090 84.9001   6 
   1  -8  -7 156.656 84.6111   6 
   1  -8  -6 427.687 113.202   6 
   1  -8  -5 2057.41 257.958   4 
   1  -8  -4 4696.53 365.929   4 
   1  -8  -3 151.574 78.1568   4 
   1  -8  -2 1572.37 114.487   2 
   1  -8  -2 1837.19 228.198   4 
   1  -8  -1 1804.20 182.407   1 
   1  -8  -1 1372.62 125.754   2 
   1  -8  -1 1728.75 222.190   4 
   1  -8   0 1380.13 149.541   1 
   1  -8   0 1198.64 185.727   4 
   1  -8   1 2754.67 280.569   4 
   1  -8   1 2585.77 190.591   1 
   1  -8   2-86.3936 63.8231   4 
   1  -8   3 889.551 166.281   4 
   1  -8   4 646.839 155.668   4 
   1  -8   5 2331.59 290.660   4 
   1  -8   6 433.239 144.110   4 
   1  -8   7 533.271 161.306   4 
   1  -8   8 157.572 83.2325   4 
   1  -7  -9 939.274 169.523   6 
   1  -7  -8 946.529 155.619   6 
   1  -7  -7 810.014 143.189   6 
   1  -7  -6 2008.31 224.726   6 
   1  -7  -5 2173.85 233.949   6 
   1  -7  -5 1966.91 155.473   3 
   1  -7  -5 2433.55 261.610   4 
   1  -7  -4 2390.52 134.272   3 
   1  -7  -4 3262.19 287.886   4 
   1  -7  -3 1218.55 172.035   4 
   1  -7  -2 533.102 113.338   4 
   1  -7  -2 465.452 57.9173   2 
   1  -7  -1 358.343 98.2019   4 
   1  -7  -1 229.739 47.4332   2 
   1  -7   0 316.748 91.1734   4 
   1  -7   0 303.219 59.8317   1 
   1  -7   1 1746.70 206.241   4 
   1  -7   1 1642.44 134.622   1 
   1  -7   2 479.904 103.698   4 
   1  -7   3 4295.44 338.426   4 
   1  -7   4 12923.7 608.434   4 
   1  -7   5 25102.2 896.913   4 
   1  -7   6 311.668 106.955   4 
   1  -7   7 60.8471 61.7205   4 
   1  -7   8-110.181 81.4806   4 
   1  -7   9-204.537 141.178   4 
   1  -6  -9 12.5915 58.6039   6 
   1  -6  -8 440.178 107.824   6 
   1  -6  -7 2462.60 239.161   6 
   1  -6  -7 2664.06 241.079   3 
   1  -6  -6 195.557 56.4948   6 
   1  -6  -6 95.6633 27.2450   3 
   1  -6  -5 24249.9 720.772   6 
   1  -6  -5 23853.3 584.966   3 
   1  -6  -5 25657.6 812.104   4 
   1  -6  -4 293.758 57.7154   3 
   1  -6  -4 368.836 95.6377   4 
   1  -6  -3 2548.52 245.981   5 
   1  -6  -3 2273.07 217.486   4 
   1  -6  -2 373.064 47.4812   2 
   1  -6  -2 624.634 118.680   5 
   1  -6  -2 548.783 104.417   4 
   1  -6  -1 3639.59 280.165   5 
   1  -6  -1 3675.46 265.045   4 
   1  -6  -1 2959.56 152.873   2 
   1  -6   0 6116.80 343.282   5 
   1  -6   0 5877.93 341.531   4 
   1  -6   1 4625.91 204.929   1 
   1  -6   1 4095.52 289.868   5 
   1  -6   1 4856.33 316.805   4 
   1  -6   2 97.7555 51.7798   4 
   1  -6   3 86.4246 54.9108   4 
   1  -6   4 6714.18 409.616   4 
   1  -6   5 348.052 109.174   4 
   1  -6   6 61.8876 39.3205   4 
   1  -6   7 59.0967 44.0499   4 
   1  -6   8-27.6034 85.1624   4 
   1  -6   9 864.093 212.006   4 
   1  -5 -10-18.8776 50.8344   6 
   1  -5  -9 451.497 108.793   6 
   1  -5  -8 642.045 122.142   6 
   1  -5  -7 1875.08 200.700   6 
   1  -5  -7 2216.29 224.405   3 
   1  -5  -6 5965.84 337.793   6 
   1  -5  -6 6595.49 348.738   3 
   1  -5  -5 194.871 49.0740   3 
   1  -5  -5 136.359 52.8139   6 
   1  -5  -5 292.773 93.1848   5 
   1  -5  -4 5553.32 255.097   3 
   1  -5  -4 5464.13 333.161   4 
   1  -5  -3 6311.67 352.004   5 
   1  -5  -3 5791.61 217.128   3 
   1  -5  -3 5446.36 307.628   4 
   1  -5  -2 86.8796 46.9661   4 
   1  -5  -2 28.2505 12.1477   3 
   1  -5  -2 21.4140 12.6857   2 
   1  -5  -2 73.7600 48.9324   5 
   1  -5  -1 4834.57 274.588   4 
   1  -5  -1 3676.93 149.220   2 
   1  -5   0 1992.22 179.234   4 
   1  -5   1 1208.40 93.5310   1 
   1  -5   1 1336.26 149.929   4 
   1  -5   2 12.5066 31.6777   4 
   1  -5   3 5700.02 335.911   4 
   1  -5   4 1096.04 148.331   6 
   1  -5   4 1174.61 169.943   4 
   1  -5   5 6943.14 379.583   6 
   1  -5   5 6831.33 416.314   4 
   1  -5   6 212.562 89.3701   4 
   1  -5   7 25.4788 66.6094   4 
   1  -5   8 75.3818 54.5140   4 
   1  -5   9 251.496 108.151   4 
   1  -5  10 251.525 122.764   4 
   1  -4 -10 2608.48 244.421   6 
   1  -4  -9 287.388 82.1767   6 
   1  -4  -8 153.882 58.2629   6 
   1  -4  -7 50.6090 46.7947   3 
   1  -4  -7 29.3568 57.4021   6 
   1  -4  -6 1279.58 151.360   6 
   1  -4  -6 1294.61 175.645   5 
   1  -4  -6 1290.58 158.640   3 
   1  -4  -5 4114.34 252.274   6 
   1  -4  -5 4787.50 307.811   5 
   1  -4  -5 4215.56 250.663   3 
   1  -4  -4 8518.37 349.104   6 
   1  -4  -4 8949.22 324.018   3 
   1  -4  -3 989.900 128.752   5 
   1  -4  -3 853.274 87.1233   3 
   1  -4  -3 916.719 113.167   4 
   1  -4  -2 4738.33 258.472   5 
   1  -4  -2 4160.75 147.576   3 
   1  -4  -2 4052.44 225.727   4 
   1  -4  -1 130339. 1265.53   4 
   1  -4   0 15339.0 436.014   4 
   1  -4   1 4924.47 158.804   1 
   1  -4   1 5024.56 261.173   4 
   1  -4   2 140.426 52.8679   4 
   1  -4   3 154.573 62.3395   4 
   1  -4   4 20.1344 29.9938   4 
   1  -4   4 82.5919 44.6296   6 
   1  -4   5 1163.45 163.945   4 
   1  -4   5 1066.62 136.521   6 
   1  -4   6 1942.44 188.144   6 
   1  -4   7-20.2425 28.6029   6 
   1  -3 -10 96.2276 43.5356   6 
   1  -3  -9 635.483 115.832   6 
   1  -3  -8-21.9645 23.9774   6 
   1  -3  -7 65.5747 44.4892   6 
   1  -3  -7 94.5623 51.0473   3 
   1  -3  -6 1705.09 162.988   6 
   1  -3  -6 1943.36 188.346   5 
   1  -3  -6 1792.36 189.802   3 
   1  -3  -5 6394.81 297.195   6 
   1  -3  -5 7300.16 345.390   5 
   1  -3  -5 6472.31 317.209   3 
   1  -3  -4 1467.52 135.655   6 
   1  -3  -4 1675.42 156.167   5 
   1  -3  -4 1506.48 132.899   3 
   1  -3  -3 373.274 57.0674   3 
   1  -3  -3 424.161 72.5992   6 
   1  -3  -3 435.435 72.1297   5 
   1  -3  -3 413.224 72.0002   4 
   1  -3  -2 15957.4 308.254   3 
   1  -3  -2 15188.6 393.074   4 
   1  -3  -1 4495.57 204.109   4 
   1  -3   0 32920.2 550.974   4 
   1  -3   1 5311.04 227.410   4 
   1  -3   1 5010.21 124.038   1 
   1  -3   2 3063.51 189.077   4 
   1  -3   3 3856.22 228.782   4 
   1  -3   4 4261.42 228.207   6 
   1  -3   5 2852.84 197.771   6 
   1  -3   6 2907.70 212.547   6 
   1  -3   7 348.046 75.9823   6 
   1  -3   8 43.2787 37.5367   6 
   1  -2 -11 263.628 76.1777   6 
   1  -2 -10 306.064 93.7018   6 
   1  -2  -9 35.4479 24.9228   6 
   1  -2  -8 36.4001 38.8426   6 
   1  -2  -7 243.639 62.4384   6 
   1  -2  -7 170.005 54.6569   5 
   1  -2  -6 19648.9 533.875   6 
   1  -2  -6 21029.6 612.127   5 
   1  -2  -6 19317.4 623.857   3 
   1  -2  -5 26070.5 635.494   5 
   1  -2  -5 26918.5 665.205   3 
   1  -2  -4 259.047 60.1089   6 
   1  -2  -4 110.369 32.1505   3 
   1  -2  -4 211.901 52.2938   5 
   1  -2  -3 1491.20 118.097   6 
   1  -2  -3 1463.97 117.138   5 
   1  -2  -3 1441.89 112.805   3 
   1  -2  -2 2852.57 150.033   6 
   1  -2  -2 3166.86 158.310   5 
   1  -2  -2 2845.58 130.421   3 
   1  -2  -2 3089.94 158.796   4 
   1  -2  -1 3798.42 115.854   3 
   1  -2  -1 4147.45 161.050   4 
   1  -2   0 88114.1 728.307   4 
   1  -2   1 1222.84 91.3340   4 
   1  -2   2 9254.94 273.792   4 
   1  -2   3 23895.2 433.131   6 
   1  -2   4 37988.8 592.402   6 
   1  -2   5 3154.87 185.129   6 
   1  -2   6 3517.81 214.596   6 
   1  -2   7 97.6578 40.7769   6 
   1  -2   8 2206.19 199.904   6 
   1  -1 -11 1077.66 171.172   6 
   1  -1 -10 259.744 81.9113   6 
   1  -1  -9 712.975 121.899   6 
   1  -1  -8-37.7033 43.9480   6 
   1  -1  -7 1076.15 130.921   6 
   1  -1  -6 5594.40 337.079   3 
   1  -1  -6 5149.19 266.489   6 
   1  -1  -5 6484.74 279.564   6 
   1  -1  -5 6581.14 332.840   3 
   1  -1  -4 8190.24 285.248   6 
   1  -1  -4 7073.87 299.188   3 
   1  -1  -3 515.902 67.3677   6 
   1  -1  -3 494.818 61.7942   5 
   1  -1  -3 456.046 67.9279   3 
   1  -1  -2 87163.2 748.048   6 
   1  -1  -2 83482.3 644.247   5 
   1  -1  -1 71.1452 24.0157   6 
   1  -1  -1 81.2000 22.9588   4 
   1  -1   0 79104.9 488.065   4 
   1  -1   1 51.2649 18.4572   4 
   1  -1   2 676.351 52.8551   6 
   1  -1   3 11044.9 245.790   6 
   1  -1   4 2428.74 130.293   6 
   1  -1   5 1423.87 116.104   6 
   1  -1   6 1618.26 134.565   6 
   1  -1   7 1586.81 146.744   6 
   1  -1   8 116.947 50.4616   6 
   1   0 -11 114.574 51.5742   6 
   1   0 -10 112.820 65.1137   6 
   1   0  -9 6675.67 385.510   6 
   1   0  -8 998.684 144.074   6 
   1   0  -7 1090.14 135.930   6 
   1   0  -6 7082.66 379.900   3 
   1   0  -6 6953.82 310.208   6 
   1   0  -5 3037.10 188.391   6 
   1   0  -4 8597.78 284.651   6 
   1   0  -3 3816.58 169.644   6 
   1   0  -2 4132.36 152.585   6 
   1   0  -1 247.793 33.0353   6 
   1   0   2 6481.68 105.663   6 
   1   0   3 8511.96 170.644   6 
   1   0   4 23752.7 349.918   6 
   1   0   5 10156.6 265.145   6 
   1   0   6 21.1833 16.9153   6 
   1   0   7 5528.51 248.198   6 
   1   0   8 547.534 88.0446   6 
   1   1 -11 13155.3 610.087   6 
   1   1 -10 82.1820 70.5555   6 
   1   1  -9 831.686 141.508   6 
   1   1  -8 27.9090 41.2829   6 
   1   1  -7 55.7875 53.0374   6 
   1   1  -6 1182.93 139.101   6 
   1   1  -6 979.383 147.329   3 
   1   1  -5 3050.81 199.876   6 
   1   1  -4 2229.79 160.065   6 
   1   1  -3 545.057 71.3787   6 
   1   1  -2 156428. 1030.04   6 
   1   1  -1 752.520 51.3765   5 
   1   1  -1 716.369 64.7422   6 
   1   1   0 73660.0 541.962   5 
   1   1   1 3805.15 146.672   5 
   1   1   1 3593.27 104.417   4 
   1   1   2 22750.9 348.989   4 
   1   1   5 589.960 69.9121   6 
   1   1   6 389.435 63.8997   6 
   1   1   7 2243.83 158.869   6 
   1   2  -9 12.0153 53.0954   6 
   1   2  -8 489.192 117.250   6 
   1   2  -7 1656.11 183.575   6 
   1   2  -6 10547.0 468.989   3 
   1   2  -6 10280.2 424.304   6 
   1   2  -5 15239.4 479.684   6 
   1   2  -5 15480.7 514.792   3 
   1   2  -4 8527.96 336.628   3 
   1   2  -4 8205.40 329.008   6 
   1   2  -3 1416.84 119.045   3 
   1   2  -3 1492.61 130.289   6 
   1   2  -2 38705.0 527.327   5 
   1   2  -2 35788.0 513.911   3 
   1   2  -1 28.3965 13.2502   3 
   1   2  -1 7.98049 18.4634   1 
   1   2  -1 18.0383 15.6057   5 
   1   2   0 691.061 66.8233   5 
   1   2   0 652.466 64.3643   4 
   1   2   1 13651.6 327.000   5 
   1   2   1 13328.4 291.460   2 
   1   2   1 12689.1 276.009   4 
   1   2   2 62.1017 17.4073   2 
   1   2   2 42.5199 21.1564   5 
   1   2   2 57.9605 24.0343   4 
   1   2   3 69634.6 763.387   2 
   1   2   3 75485.5 832.167   4 
   1   2   4 86282.8 997.171   4 
   1   2   5 812.057 117.232   4 
   1   2   6 42.0736 48.4602   4 
   1   2   7 158.070 56.6308   4 
   1   3  -6 1426.39 176.863   3 
   1   3  -5 1695.49 172.249   3 
   1   3  -4 155.496 46.9947   3 
   1   3  -3 771.251 100.129   5 
   1   3  -3 783.188 95.0576   3 
   1   3  -2 10843.6 335.118   5 
   1   3  -2 11420.8 303.497   3 
   1   3  -2 11050.9 302.448   1 
   1   3  -1 9040.03 266.562   1 
   1   3  -1 9595.47 295.143   5 
   1   3  -1 9135.98 214.823   3 
   1   3   0 14459.8 370.220   5 
   1   3   0 13509.5 364.135   4 
   1   3   1 357.838 55.4129   4 
   1   3   1 331.110 55.5371   5 
   1   3   2 1088.01 116.866   5 
   1   3   2 1122.26 97.4393   2 
   1   3   2 1093.49 102.369   4 
   1   3   3 15810.5 493.640   5 
   1   3   3 15585.6 386.009   2 
   1   3   3 15803.0 419.923   4 
   1   3   4 5783.08 250.195   2 
   1   3   4 6189.84 291.814   4 
   1   3   5-4.71063 24.6761   2 
   1   3   5 6.29448 29.9592   4 
   1   3   6 83.2078 54.4831   4 
   1   3   7 442.026 120.844   4 
   1   4  -6 240.341 75.4761   3 
   1   4  -5-42.7605 31.4012   3 
   1   4  -5 67.6619 45.5489   5 
   1   4  -4 34.6614 19.7055   3 
   1   4  -4 109.160 51.8696   1 
   1   4  -4 77.1138 48.2290   5 
   1   4  -3 1433.95 154.560   5 
   1   4  -3 1522.75 133.781   3 
   1   4  -3 1527.76 129.528   1 
   1   4  -2 4005.41 200.943   1 
   1   4  -2 3853.86 233.212   5 
   1   4  -2 4470.22 197.160   3 
   1   4  -1 110382. 1179.78   5 
   1   4  -1 111061. 754.044   3 
   1   4  -1 108099. 1211.15   4 
   1   4   0 7353.63 304.867   5 
   1   4   0 7196.42 306.755   4 
   1   4   1 47.6357 32.1047   4 
   1   4   1 34.2114 27.8106   5 
   1   4   2 14803.4 464.211   5 
   1   4   2 15056.1 432.794   4 
   1   4   3 4862.79 289.481   5 
   1   4   3 4951.15 235.136   2 
   1   4   3 4632.14 252.708   4 
   1   4   4 6945.57 377.507   5 
   1   4   4 7153.49 302.406   2 
   1   4   4 6642.95 324.878   4 
   1   4   5 172.035 62.1621   4 
   1   4   5 110.876 41.4403   2 
   1   4   6 13.4211 36.1486   4 
   1   4   6 85.0979 42.1682   2 
   1   4   7 688.103 108.202   2 
   1   4   8 7230.45 375.242   2 
   1   4   9 12.7266 36.6961   2 
   1   4  10 744.713 143.251   2 
   1   5  -7 1872.25 225.681   5 
   1   5  -6 188.995 76.8150   5 
   1   5  -6 428.323 97.3937   3 
   1   5  -6 292.777 71.0394   1 
   1   5  -5 3311.53 282.553   5 
   1   5  -5 3782.18 264.561   3 
   1   5  -5 3979.67 251.611   1 
   1   5  -4 303.687 65.5414   1 
   1   5  -4 296.110 68.3675   3 
   1   5  -4 264.632 83.3797   5 
   1   5  -3 126.148 41.1746   1 
   1   5  -3 164.754 49.7194   3 
   1   5  -3 70.4887 27.1563   5 
   1   5  -2 7.55819 17.0151   3 
   1   5  -2 39.7064 39.3902   5 
   1   5  -1 1082.66 135.578   5 
   1   5  -1 973.964 133.558   4 
   1   5   0 1101.41 135.922   5 
   1   5   0 1134.28 140.024   4 
   1   5   1 5906.17 313.556   5 
   1   5   1 6238.39 317.235   4 
   1   5   2 5322.56 299.894   5 
   1   5   2 5668.42 299.233   4 
   1   5   3 174.329 49.5122   4 
   1   5   3 148.956 46.7936   5 
   1   5   4 3010.55 261.415   5 
   1   5   4 2841.47 229.990   4 
   1   5   4 3059.06 203.672   2 
   1   5   5 2570.53 198.645   2 
   1   5   5 2496.09 231.649   4 
   1   5   6 1106.44 134.990   2 
   1   5   7 453.949 99.3217   2 
   1   5   8 175.376 61.9288   2 
   1   5   9 124.247 53.3341   2 
   1   6 -10 22.8758 41.9774   5 
   1   6  -9 27.5781 34.0457   5 
   1   6  -8 36.6179 33.6761   1 
   1   6  -8 36.8587 61.7062   5 
   1   6  -7 161.080 91.5542   5 
   1   6  -7 152.465 58.0117   1 
   1   6  -6 2835.86 307.302   5 
   1   6  -6 3386.38 243.088   1 
   1   6  -5 1078.85 137.061   1 
   1   6  -5 1093.66 185.596   5 
   1   6  -5 1145.68 149.936   3 
   1   6  -4 2303.89 183.665   1 
   1   6  -4 2412.38 248.698   5 
   1   6  -4 2499.46 202.249   3 
   1   6  -3 442.680 77.2870   3 
   1   6  -3 333.968 92.7736   5 
   1   6  -2 4542.05 309.886   5 
   1   6  -2 4660.11 188.507   3 
   1   6  -1 4406.58 298.067   5 
   1   6  -1 4527.59 315.145   4 
   1   6   0 2563.53 225.135   5 
   1   6   0 2683.29 236.096   4 
   1   6   1 1967.75 202.476   5 
   1   6   1 2128.58 205.988   4 
   1   6   2 4326.40 301.424   5 
   1   6   2 4757.55 301.068   4 
   1   6   3 28187.1 785.169   5 
   1   6   3 29398.8 774.294   4 
   1   6   4 11.8804 39.2428   5 
   1   6   5 4258.90 343.042   5 
   1   6   5 3935.65 247.474   2 
   1   6   6 995.505 133.871   2 
   1   6   7 202.292 75.1334   2 
   1   6   8 260.927 85.9683   2 
   1   7  -9-157.854 87.9868   5 
   1   7  -8 157.847 79.9025   5 
   1   7  -7 9413.70 420.995   1 
   1   7  -7 8163.82 526.478   5 
   1   7  -6 10603.9 435.695   1 
   1   7  -6 10566.7 588.838   5 
   1   7  -5 2430.28 200.163   1 
   1   7  -5 2228.97 275.469   5 
   1   7  -5 2475.29 222.358   3 
   1   7  -4 198.649 66.5999   3 
   1   7  -4-42.9096 33.0012   5 
   1   7  -3 297.656 59.8893   3 
   1   7  -3 245.269 89.7126   5 
   1   7  -2-57.4111 41.1513   5 
   1   7  -1 170.379 83.1708   5 
   1   7   0 287.378 77.6447   5 
   1   7   1 832.709 148.600   5 
   1   7   2 6651.87 405.619   5 
   1   7   3 7732.10 439.806   5 
   1   7   4 665.997 136.225   5 
   1   7   5 1662.37 224.001   5 
   1   8  -8 250.535 100.022   5 
   1   8  -7 981.272 196.968   5 
   1   8  -6 948.007 194.059   5 
   1   8  -5 112.107 79.7948   5 
   1   8  -4 56.1887 49.3820   5 
   1   8  -3 3122.93 313.767   5 
   1   8  -2 1233.52 191.958   5 
   1   8  -1 1152.01 185.822   5 
   1   8   0 3192.79 304.471   5 
   1   8   1 85.8723 57.9559   5 
   1   8   2 4557.97 361.610   5 
   1   8   3 1274.53 190.794   5 
   1   8   4 1233.20 193.268   5 
   1   8   5 423.719 125.656   5 
   1   9  -7 573.062 159.668   5 
   1   9  -6-1.41033 60.9071   5 
   1   9  -5-90.7070 78.5380   5 
   1   9  -4 382.992 119.132   5 
   1   9  -3 118.781 81.5382   5 
   1   9  -2 147.741 72.7128   5 
   1   9  -1 42.6950 45.7944   5 
   1   9   0 86.9709 59.2670   5 
   1   9   1 104.931 65.8192   5 
   1   9   2 216.236 104.555   5 
   1   9   3 108.056 61.8883   5 
   1   9   4 328.202 101.976   5 
   1   9   5 435.661 136.350   5 
   1  10  -5-23.7605 60.1262   5 
   1  10  -4 844.319 206.916   5 
   1  10  -3 703.770 174.548   5 
   1  10  -2 55.2867 78.0543   5 
   1  10  -1 250.389 96.6645   5 
   1  10   0 108.734 50.1890   5 
   1  10   1 62.3162 57.8997   5 
   1  10   2 282.006 101.731   5 
   1  10   3 4321.62 408.474   5 
   2 -11   0 143.977 106.171   4 
   2 -10  -6 678.928 152.821   6 
   2 -10  -5 68.0363 73.0693   6 
   2 -10  -4 103.772 44.0752   4 
   2 -10  -3 31.0388 58.5052   4 
   2 -10  -2 16.5626 55.4914   4 
   2 -10  -1-96.8668 74.3997   4 
   2 -10   0 402.633 127.613   4 
   2 -10   1 284.791 106.431   4 
   2 -10   2 219.263 113.229   4 
   2 -10   3 428.154 144.263   4 
   2 -10   4 15.3980 65.7723   4 
   2 -10   5-6.91314 79.5699   4 
   2  -9  -8 265.322 106.125   6 
   2  -9  -7 1319.94 218.085   6 
   2  -9  -6 215.007 96.1844   6 
   2  -9  -5 1584.64 239.753   6 
   2  -9  -5 1782.06 261.520   4 
   2  -9  -4 296.257 99.7839   4 
   2  -9  -3 5.85279 37.9642   4 
   2  -9  -2 772.573 166.197   4 
   2  -9  -1 11764.0 467.829   1 
   2  -9  -1 12915.7 646.243   4 
   2  -9   0 7.96022 68.8255   4 
   2  -9   0 101.138 54.2943   1 
   2  -9   1 466.429 125.008   4 
   2  -9   2 869.733 176.027   4 
   2  -9   3 241.392 101.312   4 
   2  -9   4 1265.21 217.555   4 
   2  -9   5 1043.58 209.177   4 
   2  -9   6-86.1942 92.4747   4 
   2  -8  -9 257.877 120.283   6 
   2  -8  -8 1148.27 185.368   6 
   2  -8  -7 316.756 101.757   6 
   2  -8  -6 12.1836 58.4139   6 
   2  -8  -5 842.471 165.735   6 
   2  -8  -5 1247.94 203.110   4 
   2  -8  -4 3276.27 309.603   4 
   2  -8  -3 310.696 102.282   4 
   2  -8  -2 2733.04 275.007   4 
   2  -8  -1 3192.16 176.180   2 
   2  -8  -1 4778.92 364.332   4 
   2  -8   0 807.036 150.661   4 
   2  -8   0 774.998 102.183   1 
   2  -8   1 1557.28 208.536   4 
   2  -8   1 1481.24 129.599   1 
   2  -8   2 46.4800 33.0819   4 
   2  -8   3 117.999 78.4052   4 
   2  -8   4 127.778 87.3308   4 
   2  -8   5-14.1207 57.3016   4 
   2  -8   6 1182.46 227.420   4 
   2  -8   7 1005.71 220.518   4 
   2  -8   8 521.845 177.083   4 
   2  -7  -9 207.227 65.5663   6 
   2  -7  -8 97.7422 72.0702   6 
   2  -7  -7 892.783 155.758   6 
   2  -7  -6 2186.11 241.246   6 
   2  -7  -5 3212.95 295.414   6 
   2  -7  -5 3259.23 212.592   3 
   2  -7  -5 3594.50 320.085   4 
   2  -7  -4 3666.18 192.525   3 
   2  -7  -4 4770.17 356.624   4 
   2  -7  -3 283.332 87.1945   4 
   2  -7  -2 1639.77 198.549   4 
   2  -7  -1 160.020 70.7998   4 
   2  -7   0 629.496 127.990   4 
   2  -7   1 783.266 83.2051   1 
   2  -7   1 662.202 127.466   4 
   2  -7   2 3152.88 276.201   4 
   2  -7   3 597.146 130.361   4 
   2  -7   4 9149.89 512.715   4 
   2  -7   5 205.089 80.9795   4 
   2  -7   6 134.686 70.1782   4 
   2  -7   7 317.183 126.390   4 
   2  -7   8 996.063 216.349   4 
   2  -7   9 502.466 171.868   4 
   2  -6 -10 507.471 138.500   6 
   2  -6  -9 511.525 125.056   6 
   2  -6  -8 404.567 111.267   6 
   2  -6  -7 5837.29 378.619   6 
   2  -6  -7 6138.13 375.121   3 
   2  -6  -6 36102.4 921.822   6 
   2  -6  -6 38982.9 871.142   3 
   2  -6  -5 688.019 102.122   3 
   2  -6  -5 728.671 132.386   6 
   2  -6  -4 1227.11 124.226   3 
   2  -6  -4 1509.50 187.491   4 
   2  -6  -3 1065.91 162.830   5 
   2  -6  -3 876.446 130.482   4 
   2  -6  -2 886.767 148.721   5 
   2  -6  -2 826.996 126.693   4 
   2  -6  -1 3618.30 279.261   5 
   2  -6  -1 4161.83 283.391   4 
   2  -6   0 2285.84 215.249   5 
   2  -6   0 2697.74 233.151   4 
   2  -6   1 672.665 70.0444   1 
   2  -6   1 649.932 120.112   4 
   2  -6   2 11915.7 499.971   4 
   2  -6   3 27389.6 776.881   4 
   2  -6   4 1518.29 198.239   4 
   2  -6   5 11823.7 583.180   4 
   2  -6   6 152.752 69.2298   4 
   2  -6   7 127.558 96.1666   4 
   2  -6   8 189.119 104.491   4 
   2  -6   9 160.740 108.551   4 
   2  -6  10-52.6454 72.7362   4 
   2  -5 -10-7.81379 60.4507   6 
   2  -5  -9 204.042 85.6805   6 
   2  -5  -8 0.06281 44.3356   6 
   2  -5  -7 4147.82 306.795   6 
   2  -5  -7 4388.23 319.928   3 
   2  -5  -6 2274.95 214.284   6 
   2  -5  -6 2350.57 212.018   3 
   2  -5  -5 1748.44 183.353   6 
   2  -5  -5 2323.18 228.801   5 
   2  -5  -5 1862.73 176.735   3 
   2  -5  -4 309.425 70.0214   3 
   2  -5  -4 339.229 81.5336   6 
   2  -5  -4 516.582 108.670   5 
   2  -5  -4 312.328 85.4828   4 
   2  -5  -3 6164.80 246.044   3 
   2  -5  -3 6769.33 348.549   4 
   2  -5  -2 246.836 59.9396   4 
   2  -5  -2 222.341 60.9755   5 
   2  -5  -1 27146.0 663.085   5 
   2  -5  -1 28857.5 683.295   4 
   2  -5   0 10603.1 404.279   5 
   2  -5   0 11258.4 429.891   4 
   2  -5   1 81.1649 36.2719   4 
   2  -5   1 165.412 28.2122   1 
   2  -5   2 43.2994 44.2351   4 
   2  -5   3 682.624 112.867   4 
   2  -5   4 1643.48 188.271   4 
   2  -5   5 678.904 121.794   6 
   2  -5   5 613.858 126.799   4 
   2  -5   6 325.195 87.8913   6 
   2  -5   6 243.694 89.9121   4 
   2  -5   7 1541.13 230.234   4 
   2  -5   8 6216.12 490.023   4 
   2  -5   9 455.703 129.959   4 
   2  -5  10-160.707 111.292   4 
   2  -4 -11 154.888 86.4415   6 
   2  -4 -10 1645.11 207.023   6 
   2  -4  -9 708.579 135.882   6 
   2  -4  -8 679.463 122.349   6 
   2  -4  -7 1573.79 184.250   6 
   2  -4  -6 2570.27 218.431   6 
   2  -4  -6 3070.34 255.666   5 
   2  -4  -6 2633.74 224.953   3 
   2  -4  -5 1294.49 147.021   6 
   2  -4  -5 1527.16 172.384   5 
   2  -4  -5 1308.14 147.356   3 
   2  -4  -4 164.517 60.0836   3 
   2  -4  -4 187.658 66.4881   6 
   2  -4  -4 179.823 58.7134   5 
   2  -4  -3 2907.33 214.592   6 
   2  -4  -3 3030.81 178.888   3 
   2  -4  -3 2997.93 212.412   4 
   2  -4  -2 293.167 61.6584   4 
   2  -4  -2 214.830 42.5531   3 
   2  -4  -2 277.981 69.2179   5 
   2  -4  -1 14417.8 411.098   5 
   2  -4  -1 14652.7 433.369   4 
   2  -4   0 1905.22 147.951   5 
   2  -4   0 2050.64 162.321   4 
   2  -4   1 423.082 36.5774   1 
   2  -4   1 613.357 92.7903   4 
   2  -4   2 394.312 81.1366   4 
   2  -4   3 6045.38 312.737   4 
   2  -4   4 2741.91 226.589   4 
   2  -4   5 276.957 71.4057   6 
   2  -4   5 271.270 82.2624   4 
   2  -4   6-20.1807 31.8622   6 
   2  -4   6 12.4622 53.4977   4 
   2  -4   7 1058.82 140.350   6 
   2  -4   8 442.895 99.2205   6 
   2  -3 -11 205.188 72.9649   6 
   2  -3 -10 56.7530 41.4953   6 
   2  -3  -9 138.145 71.0900   6 
   2  -3  -8 1345.73 176.087   6 
   2  -3  -7 1573.64 177.305   6 
   2  -3  -7 1636.23 192.203   5 
   2  -3  -6 809.246 122.707   6 
   2  -3  -6 724.250 122.438   3 
   2  -3  -6 828.428 119.747   5 
   2  -3  -5 4111.46 252.842   6 
   2  -3  -5 4659.27 271.946   5 
   2  -3  -5 3894.07 251.589   3 
   2  -3  -4 728.048 102.927   6 
   2  -3  -4 969.590 118.650   5 
   2  -3  -4 765.212 100.087   3 
   2  -3  -3 62.0745 32.4924   3 
   2  -3  -3 1.03722 32.2619   6 
   2  -3  -3 0.28623 28.7748   5 
   2  -3  -2 60.4294 25.9448   3 
   2  -3  -2 14.4929 16.8774   5 
   2  -3  -2 39.8966 24.2346   4 
   2  -3  -1 5629.26 218.312   5 
   2  -3  -1 5453.85 231.553   4 
   2  -3   0 17.0433 19.7138   4 
   2  -3   0 21.8100 14.3375   5 
   2  -3   1 894.366 92.7215   4 
   2  -3   2 1714.72 134.115   4 
   2  -3   3 31002.1 629.306   4 
   2  -3   4 14815.7 411.307   6 
   2  -3   4 15685.9 496.014   4 
   2  -3   5 2668.06 183.527   6 
   2  -3   6 5008.53 260.544   6 
   2  -3   7 535.488 97.4178   6 
   2  -3   8-11.4297 23.9873   6 
   2  -2 -11 1648.77 208.933   6 
   2  -2 -10 14.5945 46.2093   6 
   2  -2  -9 7.06773 36.9249   6 
   2  -2  -8 1542.42 185.897   6 
   2  -2  -7 210.853 66.1088   6 
   2  -2  -7 258.307 77.5660   5 
   2  -2  -6 12126.9 452.576   6 
   2  -2  -6 12964.7 451.638   5 
   2  -2  -6 11801.4 489.764   3 
   2  -2  -5 100.582 44.6231   3 
   2  -2  -5 31.6236 47.5986   6 
   2  -2  -5 70.5841 33.9965   5 
   2  -2  -4 1593.58 146.749   6 
   2  -2  -4 1662.40 133.575   5 
   2  -2  -4 1424.50 136.586   3 
   2  -2  -3 523.782 77.2830   6 
   2  -2  -3 572.198 75.2129   5 
   2  -2  -3 574.831 79.3468   3 
   2  -2  -2 342.689 58.9155   6 
   2  -2  -2 328.065 49.8455   3 
   2  -2  -2 464.509 57.0396   5 
   2  -2  -1 27689.3 385.544   5 
   2  -2  -1 24394.5 400.653   3 
   2  -2  -1 27392.3 437.016   4 
   2  -2  -1 24373.3 247.823   2 
   2  -2   0 80239.7 707.171   4 
   2  -2   1-4.72147 13.5693   4 
   2  -2   2-22.8877 26.3116   4 
   2  -2   4 9910.31 283.827   6 
   2  -2   5 1142.39 104.314   6 
   2  -2   6 2734.24 175.333   6 
   2  -2   7 46.2741 29.2242   6 
   2  -2   8 1853.89 171.871   6 
   2  -1 -11 365.512 112.136   6 
   2  -1 -10 41.3094 51.8762   6 
   2  -1  -9 136.446 64.9265   6 
   2  -1  -8 1371.96 174.647   5 
   2  -1  -8 1420.03 176.014   6 
   2  -1  -7 3745.77 263.993   6 
   2  -1  -7 3763.94 266.113   5 
   2  -1  -6 1170.10 134.777   6 
   2  -1  -6 1087.15 131.830   5 
   2  -1  -6 1192.29 157.238   3 
   2  -1  -5 3278.01 216.161   6 
   2  -1  -5 3003.28 193.449   5 
   2  -1  -5 3011.17 223.566   3 
   2  -1  -4 293.949 65.9918   3 
   2  -1  -4 279.282 59.5706   6 
   2  -1  -4 329.762 55.8303   5 
   2  -1  -3 1827.73 135.112   6 
   2  -1  -3 1566.00 99.6819   5 
   2  -1  -2 20815.8 414.181   6 
   2  -1  -2 20069.3 280.982   5 
   2  -1  -1 5414.55 187.943   6 
   2  -1  -1 5710.37 116.385   5 
   2  -1   0 79898.4 570.603   2 
   2  -1   0 81602.1 519.364   4 
   2  -1   1 20505.9 256.357   4 
   2  -1   3 189.081 29.6076   6 
   2  -1   4 7499.12 201.636   6 
   2  -1   5 27.2437 18.5908   6 
   2  -1   6 18.2270 23.4261   6 
   2  -1   7 2.67566 24.9153   6 
   2  -1   8 485.491 82.7662   6 
   2   0 -12 261.204 84.0129   6 
   2   0 -11 3285.40 314.456   6 
   2   0 -10 371.859 104.911   6 
   2   0  -9 41.3609 48.7425   6 
   2   0  -8 300.139 86.7597   6 
   2   0  -7 943.688 137.419   6 
   2   0  -6 3663.50 275.588   3 
   2   0  -6 3166.56 226.181   6 
   2   0  -5 3127.39 205.343   6 
   2   0  -4 3435.42 201.403   6 
   2   0  -3 4414.67 204.235   6 
   2   0  -1 57283.9 570.309   6 
   2   0   0 29091.4 336.110   6 
   2   0   1-3.68143 6.06156   6 
   2   0   4 74.1627 16.3105   6 
   2   0   5 257.482 36.6452   6 
   2   0   6 2460.40 125.360   6 
   2   0   7 26414.4 464.285   6 
   2   0   8 2056.54 142.089   6 
   2   1 -12 49.4450 83.3435   6 
   2   1 -11 1722.79 228.908   6 
   2   1 -10 48.2042 60.7699   6 
   2   1  -9-45.6944 37.9954   6 
   2   1  -8 164.325 62.0361   6 
   2   1  -7 17.7199 35.8255   6 
   2   1  -6 1675.87 173.999   6 
   2   1  -6 1689.80 192.913   3 
   2   1  -5-24.8629 34.1206   6 
   2   1  -4 632.697 94.7271   6 
   2   1  -3 802.630 93.0009   6 
   2   1  -2 22058.5 302.327   5 
   2   1  -2 21301.5 420.940   6 
   2   1  -1 102701. 610.960   5 
   2   1  -1 108258. 838.152   6 
   2   1   0 18893.4 305.583   6 
   2   1   0 19914.8 319.921   5 
   2   1   1 2362.46 80.3501   4 
   2   1   2-21.8933 14.8167   4 
   2   1   3 12524.8 296.666   4 
   2   1   4 5437.11 235.561   4 
   2   2 -11 57.0458 59.8521   6 
   2   2 -10 512.573 128.018   6 
   2   2  -9-44.6636 66.9550   6 
   2   2  -8 487.887 122.850   6 
   2   2  -7 1666.34 191.858   6 
   2   2  -6 561.928 107.729   3 
   2   2  -6 639.012 113.325   6 
   2   2  -5 3739.79 255.633   3 
   2   2  -5 3429.56 247.280   6 
   2   2  -4 7872.31 335.598   3 
   2   2  -4 7810.97 336.557   6 
   2   2  -3 20547.2 420.830   5 
   2   2  -3 19967.3 483.633   3 
   2   2  -3 20037.2 502.367   6 
   2   2  -2 630.940 67.5454   5 
   2   2  -2 605.506 75.7738   3 
   2   2  -2 601.573 76.6992   1 
   2   2  -2 539.434 78.0795   6 
   2   2  -1 741.888 71.3116   5 
   2   2  -1 860.196 79.6997   3 
   2   2  -1 814.530 83.8746   6 
   2   2   0 2412.21 140.909   5 
   2   2   1 18730.2 430.699   5 
   2   2   1 18159.2 412.433   2 
   2   2   1 17797.2 325.369   4 
   2   2   2 19805.8 437.305   2 
   2   2   2 20344.3 361.535   4 
   2   2   3 86.8974 27.8006   4 
   2   2   3 42.4561 27.8763   2 
   2   2   4 6289.15 289.509   2 
   2   2   4 6711.11 267.534   4 
   2   2   5 416.651 75.2716   4 
   2   2   6 880.529 131.772   4 
   2   2   7 3398.88 290.223   4 
   2   3  -8 559.239 126.393   6 
   2   3  -7 7953.25 435.995   6 
   2   3  -6 103.877 50.9391   3 
   2   3  -6 83.0695 49.7256   6 
   2   3  -5-22.0488 34.5756   6 
   2   3  -5 37.0176 32.0557   3 
   2   3  -4 67.7185 29.6790   3 
   2   3  -4 103.349 39.2023   5 
   2   3  -4 90.9068 47.8248   6 
   2   3  -3 14631.7 421.082   5 
   2   3  -3 14628.8 430.599   3 
   2   3  -2 216.218 43.6893   1 
   2   3  -2 130.953 31.4029   3 
   2   3  -2 202.092 46.3921   5 
   2   3  -1 3411.14 189.209   1 
   2   3  -1 3075.23 169.780   5 
   2   3  -1 3172.14 158.000   3 
   2   3   0 4108.44 206.895   5 
   2   3   0 3599.35 190.122   4 
   2   3   1 17043.8 448.921   5 
   2   3   1 16309.4 390.943   4 
   2   3   1 15831.9 413.090   2 
   2   3   2 12848.2 428.579   5 
   2   3   2 12881.4 386.164   2 
   2   3   2 12189.5 339.719   4 
   2   3   3 15.0146 16.7868   4 
   2   3   3-4.57559 20.9298   2 
   2   3   4 4523.58 250.869   2 
   2   3   4 5009.58 251.350   4 
   2   3   5 3206.23 226.949   2 
   2   3   5 3339.83 236.774   4 
   2   3   6 37.3672 37.8015   2 
   2   3   6 3.49730 38.7950   4 
   2   3   7 44.9352 50.5755   2 
   2   3   7 38.1341 32.6789   4 
   2   3   8 7393.98 431.312   2 
   2   3   9 76.5456 39.2515   2 
   2   3  10 100.986 73.8431   2 
   2   3  11 314.773 118.131   2 
   2   4  -6 574.335 114.841   3 
   2   4  -6 346.280 81.6208   5 
   2   4  -5 56.6212 36.8713   3 
   2   4  -5 43.2452 35.7859   5 
   2   4  -4 483.856 89.8494   3 
   2   4  -4 600.741 109.166   5 
   2   4  -4 504.053 93.0531   1 
   2   4  -3 1079.76 124.811   1 
   2   4  -3 985.845 122.788   5 
   2   4  -3 1016.26 116.312   3 
   2   4  -2 32.3291 39.0337   1 
   2   4  -2-16.6279 24.7585   3 
   2   4  -2 69.7614 37.8747   5 
   2   4  -1 155.301 50.8818   5 
   2   4  -1 148.302 32.1490   1 
   2   4   0 32.5869 22.2962   4 
   2   4   0 60.3992 30.7743   5 
   2   4   1 68.6080 36.7515   4 
   2   4   1 57.3051 36.3931   5 
   2   4   2 6220.11 322.287   5 
   2   4   2 6063.91 276.576   4 
   2   4   2 5855.28 273.259   2 
   2   4   3 7620.63 390.211   5 
   2   4   3 7209.74 323.753   2 
   2   4   3 7003.31 306.329   4 
   2   4   4 9930.98 402.782   2 
   2   4   4 9741.92 384.984   4 
   2   4   5 166.656 60.8751   4 
   2   4   5 136.529 51.9696   2 
   2   4   6 358.694 90.1606   4 
   2   4   6 506.945 102.886   2 
   2   4   7 352.596 84.6591   2 
   2   4   8 99.4098 55.1060   2 
   2   4   9 41.1479 35.4014   2 
   2   4  10 288.428 94.4836   2 
   2   5 -11 44.1849 78.5386   5 
   2   5 -10 59.1570 41.4999   5 
   2   5  -9 95.6544 64.6940   5 
   2   5  -8 111.640 58.1757   5 
   2   5  -7 763.875 139.732   5 
   2   5  -7 894.450 139.462   1 
   2   5  -6-19.5500 37.6426   1 
   2   5  -6 92.3040 58.8673   5 
   2   5  -5 46.0966 47.3796   3 
   2   5  -5-13.1429 34.4144   5 
   2   5  -5 7.94729 41.3683   1 
   2   5  -4 2637.94 210.322   1 
   2   5  -4 2492.95 230.510   5 
   2   5  -4 2737.92 222.822   3 
   2   5  -3 30513.9 691.738   1 
   2   5  -3 29777.9 744.730   5 
   2   5  -2 29.6561 20.9513   3 
   2   5  -2 74.7371 37.4845   1 
   2   5  -2 23.8999 28.9822   5 
   2   5  -1 12427.7 457.129   5 
   2   5   0 23.1999 25.5034   4 
   2   5   0 46.5609 46.2134   5 
   2   5   1 82.9823 39.3866   4 
   2   5   1 123.573 47.4286   5 
   2   5   2 816.294 125.635   5 
   2   5   2 847.150 118.758   4 
   2   5   3 3864.00 288.080   5 
   2   5   3 3847.42 250.934   4 
   2   5   3 3847.72 243.681   2 
   2   5   4 1642.40 202.080   5 
   2   5   4 1665.33 173.283   4 
   2   5   4 1811.55 180.840   2 
   2   5   5 4750.01 297.797   2 
   2   5   5 4647.34 312.373   4 
   2   5   6 551.205 106.358   2 
   2   5   7 58.0240 42.4584   2 
   2   5   8 170.026 72.7360   2 
   2   5   9-48.7731 66.7205   2 
   2   6 -10-27.5504 53.1095   5 
   2   6  -9 904.856 174.475   5 
   2   6  -9 1211.57 171.785   1 
   2   6  -8 781.027 156.852   5 
   2   6  -8 962.611 146.506   1 
   2   6  -7 2541.60 281.292   5 
   2   6  -7 3079.48 260.652   1 
   2   6  -6 4248.34 300.919   1 
   2   6  -6 3764.52 339.127   5 
   2   6  -5 1403.81 169.262   1 
   2   6  -5 1106.80 190.324   5 
   2   6  -5 1445.49 180.497   3 
   2   6  -4 11.9908 40.6203   3 
   2   6  -4 37.9939 46.1993   1 
   2   6  -4 5.71684 38.2350   5 
   2   6  -3 27.4784 40.8547   1 
   2   6  -3 30.3853 21.6566   3 
   2   6  -3 18.1542 29.7426   5 
   2   6  -2 536.014 113.343   5 
   2   6  -1 163.493 62.1146   5 
   2   6   0-11.3245 33.3453   4 
   2   6   0-21.9114 36.0833   5 
   2   6   1 60.9764 55.1760   4 
   2   6   1 107.777 49.6946   5 
   2   6   2 51014.7 1046.43   5 
   2   6   2 55882.0 1074.80   4 
   2   6   3 43262.3 1015.75   5 
   2   6   3 45158.3 967.657   4 
   2   6   4 5786.38 390.743   5 
   2   6   4 5665.88 347.752   4 
   2   6   5 264.597 73.9153   2 
   2   6   6 1049.96 142.524   2 
   2   6   7 583.715 113.879   2 
   2   6   8-42.6484 55.5785   2 
   2   7  -9 152.192 87.0129   5 
   2   7  -8 1655.81 238.487   5 
   2   7  -7 1130.15 168.510   1 
   2   7  -7 898.770 180.374   5 
   2   7  -6 245.046 80.3971   1 
   2   7  -6 84.0678 60.5330   5 
   2   7  -5 366.527 81.2864   1 
   2   7  -5 426.032 102.072   3 
   2   7  -5 204.557 80.2532   5 
   2   7  -4-44.1600 32.8898   3 
   2   7  -4 14.8017 42.5294   5 
   2   7  -3 139.868 40.7056   3 
   2   7  -3 149.993 64.1273   5 
   2   7  -2 1826.75 225.036   5 
   2   7  -1 791.804 145.774   5 
   2   7   0-40.6544 45.5120   5 
   2   7   1 5231.08 364.770   5 
   2   7   2 3092.16 278.126   5 
   2   7   3 10023.4 514.046   5 
   2   7   4 42.3289 57.3041   5 
   2   7   7 0.71506 64.1713   2 
   2   8  -8 552.080 152.396   5 
   2   8  -7 435.702 133.092   5 
   2   8  -6-62.7895 35.2684   1 
   2   8  -6-14.8543 52.4407   5 
   2   8  -5 153.951 63.7367   5 
   2   8  -4 165.300 73.3273   5 
   2   8  -3 2909.39 314.842   5 
   2   8  -2 1308.26 202.467   5 
   2   8  -1 24.5507 42.5700   5 
   2   8   0 879.835 167.285   5 
   2   8   1 2150.62 250.088   5 
   2   8   2 1960.55 239.480   5 
   2   8   3 528.006 135.979   5 
   2   8   4 784.089 163.910   5 
   2   8   5-3.01357 55.7398   5 
   2   9  -7 55.2954 79.3625   5 
   2   9  -6 193.541 96.6091   5 
   2   9  -5 48.9866 65.6819   5 
   2   9  -4 237.898 106.463   5 
   2   9  -3 6746.21 513.953   5 
   2   9  -2 881.806 181.614   5 
   2   9  -1 254.212 104.085   5 
   2   9   0 172.150 87.9916   5 
   2   9   1 2471.41 292.709   5 
   2   9   2-1.05065 48.4006   5 
   2   9   3 162.110 80.8520   5 
   2   9   4-19.2509 77.0446   5 
   2  10  -5 799.236 206.926   5 
   2  10  -4 392.746 130.618   5 
   2  10  -3 181.703 122.845   5 
   2  10  -2 576.212 161.071   5 
   2  10  -1-74.3636 73.4392   5 
   2  10   0 69.3301 74.6584   5 
   2  10   1 186.996 98.8678   5 
   2  10   2 955.374 195.426   5 
   3 -10  -5 57.6052 82.5242   6 
   3 -10  -4-7.96999 51.5011   4 
   3 -10  -3 465.915 131.794   4 
   3 -10  -2-44.4553 81.7898   4 
   3 -10  -1-36.3523 55.4059   4 
   3 -10   0 999.556 206.403   4 
   3 -10   1 478.321 132.403   4 
   3 -10   2 1298.64 226.974   4 
   3 -10   3-25.8091 69.1969   4 
   3 -10   4 1657.56 274.518   4 
   3 -10   5 227.470 131.789   4 
   3  -9  -7 485.309 145.353   6 
   3  -9  -6 1525.65 236.007   6 
   3  -9  -5 29.5038 76.9305   6 
   3  -9  -5 112.379 67.1382   4 
   3  -9  -4-0.37280 48.5399   4 
   3  -9  -3 497.082 119.931   4 
   3  -9  -2 74.3044 80.2547   4 
   3  -9  -1 52.5809 42.8474   4 
   3  -9   0 1515.32 220.190   4 
   3  -9   1-73.0567 55.3557   4 
   3  -9   2 241.127 92.6002   4 
   3  -9   3 1466.65 237.597   4 
   3  -9   4 211.829 104.096   4 
   3  -9   5 453.330 146.505   4 
   3  -9   6 251.365 117.966   4 
   3  -9   7 466.550 167.633   4 
   3  -8  -9 145.673 114.683   6 
   3  -8  -8 178.865 99.6718   6 
   3  -8  -7 1286.27 201.941   6 
   3  -8  -6 1997.34 262.258   6 
   3  -8  -5 262.255 105.262   6 
   3  -8  -5 306.424 104.619   4 
   3  -8  -4 401.796 120.464   4 
   3  -8  -3 1347.54 199.407   4 
   3  -8  -2 1027.75 177.084   4 
   3  -8  -1 899.708 161.117   4 
   3  -8  -1 378.014 50.0270   2 
   3  -8   0-26.1487 37.5670   4 
   3  -8   0 46.5993 40.2857   1 
   3  -8   1 1683.87 215.475   4 
   3  -8   1 1688.86 117.888   1 
   3  -8   2-42.0615 45.7083   4 
   3  -8   3 3205.54 314.656   4 
   3  -8   4 303.328 105.926   4 
   3  -8   5 779.043 181.088   4 
   3  -8   6 127.646 81.6575   4 
   3  -8   7 137.232 100.452   4 
   3  -8   8 676.838 188.577   4 
   3  -7 -10 516.728 138.895   6 
   3  -7  -9 473.557 119.005   6 
   3  -7  -8 2082.23 259.553   6 
   3  -7  -7 521.498 116.975   6 
   3  -7  -6 815.530 156.607   6 
   3  -7  -5 1255.09 194.992   6 
   3  -7  -5 1218.46 144.429   3 
   3  -7  -4 350.756 111.698   6 
   3  -7  -4 193.464 75.7858   4 
   3  -7  -3 355.366 93.3340   4 
   3  -7  -2 280.726 85.5446   4 
   3  -7  -1 1314.12 177.985   4 
   3  -7   0 1620.78 195.429   4 
   3  -7   1 3895.12 303.536   4 
   3  -7   1 3272.85 146.860   1 
   3  -7   2 7927.08 440.177   4 
   3  -7   3 34992.3 953.680   4 
   3  -7   4 648.251 137.454   4 
   3  -7   5 66.4705 51.9146   4 
   3  -7   6-184.292 106.561   4 
   3  -7   7 86.7575 101.644   4 
   3  -7   8 99.5922 72.6355   4 
   3  -7   9 188.174 143.755   4 
   3  -6 -10 43.5041 47.5025   6 
   3  -6  -9 794.788 154.138   6 
   3  -6  -8 265.267 96.2733   6 
   3  -6  -7 10224.1 517.192   6 
   3  -6  -6 632.023 126.706   6 
   3  -6  -6 748.164 127.251   3 
   3  -6  -5 1578.80 201.287   6 
   3  -6  -5 1700.01 179.699   3 
   3  -6  -4-16.5360 28.6706   6 
   3  -6  -4-0.38418 31.0046   3 
   3  -6  -4 9.93366 41.1872   5 
   3  -6  -4-13.3890 31.8331   4 
   3  -6  -3 771.262 141.713   5 
   3  -6  -3 814.349 130.037   4 
   3  -6  -2 1344.25 178.544   5 
   3  -6  -2 1430.81 172.645   4 
   3  -6  -1 5233.01 333.805   5 
   3  -6  -1 7129.55 381.268   4 
   3  -6   0 1139.47 157.577   4 
   3  -6   1 619.166 112.142   4 
   3  -6   1 485.419 50.3555   1 
   3  -6   2 9453.15 442.329   4 
   3  -6   3 85.5177 52.9362   4 
   3  -6   4 427.309 113.391   4 
   3  -6   5 135.575 84.0867   4 
   3  -6   6 140.710 79.0561   4 
   3  -6   7 2138.11 287.348   4 
   3  -6   8 277.165 121.177   4 
   3  -6   9 399.944 148.849   4 
   3  -6  10 197.727 133.268   4 
   3  -5 -11 405.214 128.051   6 
   3  -5 -10 250.809 93.9034   6 
   3  -5  -9 887.351 155.553   6 
   3  -5  -8 5158.43 369.698   6 
   3  -5  -7 85.7740 63.0153   6 
   3  -5  -6 3416.16 272.016   6 
   3  -5  -6 3937.82 296.727   3 
   3  -5  -5 2757.98 239.742   6 
   3  -5  -5 3398.47 282.745   5 
   3  -5  -5 2817.93 234.909   3 
   3  -5  -4 709.658 116.978   6 
   3  -5  -4 729.236 128.023   5 
   3  -5  -4 741.943 113.342   3 
   3  -5  -4 763.780 130.336   4 
   3  -5  -3 1304.50 167.470   6 
   3  -5  -3 1315.89 156.340   5 
   3  -5  -3 1097.05 122.822   3 
   3  -5  -3 1189.05 147.419   4 
   3  -5  -2 232.294 66.7830   5 
   3  -5  -2 321.439 79.4886   4 
   3  -5  -1 4106.24 249.451   5 
   3  -5  -1 4368.76 271.802   4 
   3  -5   0 1646.05 169.552   4 
   3  -5   1 2871.27 218.317   4 
   3  -5   2 1158.67 138.865   4 
   3  -5   3 11137.4 453.137   4 
   3  -5   4 102.156 62.8652   4 
   3  -5   5 3.68485 42.3637   4 
   3  -5   5-42.3883 53.1139   6 
   3  -5   6 596.375 143.916   4 
   3  -5   6 535.027 111.694   6 
   3  -5   7 152.436 91.4772   4 
   3  -5   8 518.517 149.355   4 
   3  -5   9 109.285 96.7134   4 
   3  -5  10 2.33690 56.3133   4 
   3  -4 -11 166.577 56.5946   6 
   3  -4 -10-52.8576 44.8681   6 
   3  -4  -9-60.6118 61.9480   6 
   3  -4  -8 115.508 43.3250   6 
   3  -4  -7 2161.33 220.954   6 
   3  -4  -7 2849.47 258.534   5 
   3  -4  -6 2199.47 211.935   6 
   3  -4  -6 2092.88 215.631   3 
   3  -4  -5 1231.98 151.733   6 
   3  -4  -5 1672.51 179.793   5 
   3  -4  -5 1434.68 164.137   3 
   3  -4  -4 131.436 46.3992   6 
   3  -4  -4 181.430 68.2655   3 
   3  -4  -4 154.944 55.1593   5 
   3  -4  -3 44758.6 865.055   6 
   3  -4  -3 46527.1 793.609   3 
   3  -4  -3 47639.0 875.901   4 
   3  -4  -2 14772.3 420.523   5 
   3  -4  -2 14861.0 459.102   4 
   3  -4  -1 3878.14 214.972   5 
   3  -4  -1 3894.49 228.797   4 
   3  -4   0 11.4512 18.8565   4 
   3  -4   1-10.7728 25.5760   4 
   3  -4   2 321.521 65.0997   4 
   3  -4   3 297.556 67.2320   4 
   3  -4   4 6980.79 352.384   4 
   3  -4   5 19.6342 39.7959   4 
   3  -4   5-20.4155 35.8626   6 
   3  -4   6 363.863 85.9589   6 
   3  -4   6 230.270 85.2253   4 
   3  -4   7 139.041 59.3190   6 
   3  -4   7 167.230 89.0565   4 
   3  -4   8 842.336 172.585   4 
   3  -4   9 584.726 156.640   4 
   3  -4  10 163.473 106.878   4 
   3  -4  11 136.246 71.7946   4 
   3  -3 -11 176.475 42.5174   6 
   3  -3 -10-25.6622 59.2690   6 
   3  -3  -9 184.997 77.1305   6 
   3  -3  -8 214.165 78.2725   6 
   3  -3  -7 2164.18 210.861   5 
   3  -3  -7 1584.62 185.219   6 
   3  -3  -6 634.342 119.082   3 
   3  -3  -6 531.340 95.4744   6 
   3  -3  -6 752.896 115.735   5 
   3  -3  -5 583.063 101.267   3 
   3  -3  -5 538.624 97.3583   6 
   3  -3  -5 653.507 99.9452   5 
   3  -3  -4 2017.18 184.334   6 
   3  -3  -4 2577.55 187.588   5 
   3  -3  -4 2326.91 193.148   3 
   3  -3  -3 2200.46 177.272   6 
   3  -3  -3 2524.46 160.517   5 
   3  -3  -3 2166.98 171.178   3 
   3  -3  -2 39340.1 723.494   6 
   3  -3  -2 40719.4 674.277   3 
   3  -3  -1 1436.47 111.594   5 
   3  -3  -1 1420.81 76.6038   2 
   3  -3  -1 1382.11 120.234   4 
   3  -3   0 4535.18 211.338   4 
   3  -3   1 3217.42 175.637   4 
   3  -3   1 2544.06 82.4502   1 
   3  -3   2 6360.00 251.524   4 
   3  -3   3 1753.42 146.288   4 
   3  -3   4 4039.11 249.779   4 
   3  -3   5 732.242 119.183   4 
   3  -3   5 786.797 97.5629   6 
   3  -3   6 59.7847 34.4794   6 
   3  -3   7 524.415 89.7272   6 
   3  -2 -12 125.150 81.0082   6 
   3  -2 -11 60.8522 41.3663   6 
   3  -2 -10 90.8832 82.4056   6 
   3  -2  -9-58.9278 39.0203   6 
   3  -2  -8 2864.71 267.002   6 
   3  -2  -8 3329.20 267.582   5 
   3  -2  -7 6825.46 384.071   6 
   3  -2  -7 6826.24 350.608   5 
   3  -2  -6 35.8401 42.0754   3 
   3  -2  -6-10.2199 25.7833   6 
   3  -2  -6-27.8820 31.6192   5 
   3  -2  -5 38.0646 27.9466   3 
   3  -2  -5-7.55812 21.2082   5 
   3  -2  -4 445.836 81.4332   6 
   3  -2  -4 388.650 79.0186   3 
   3  -2  -4 389.149 64.4616   5 
   3  -2  -3 1208.25 129.610   6 
   3  -2  -3 1401.08 100.500   5 
   3  -2  -3 1161.70 127.016   3 
   3  -2  -2 32658.9 609.695   6 
   3  -2  -2 34431.8 421.869   5 
   3  -2  -2 33204.7 603.146   3 
   3  -2  -1 31.5343 21.0737   6 
   3  -2  -1 15.5812 11.9541   2 
   3  -2  -1 5.70390 20.4334   4 
   3  -2   0 819.062 86.9715   6 
   3  -2   0 802.334 69.2374   2 
   3  -2   0 847.695 74.1407   4 
   3  -2   1 18651.3 276.573   1 
   3  -2   1 19178.3 349.984   4 
   3  -2   2 65420.5 674.531   4 
   3  -2   3 1710.20 128.777   4 
   3  -2   4 7189.12 230.396   6 
   3  -2   5 17.8405 14.3478   6 
   3  -2   6 349.757 63.3867   6 
   3  -2   7 521.615 82.0005   6 
   3  -1 -12-36.8479 61.8139   6 
   3  -1 -11 76.1189 56.0843   6 
   3  -1 -10-25.6739 41.4547   6 
   3  -1  -9 925.873 164.235   6 
   3  -1  -8 3755.69 303.046   6 
   3  -1  -8 3822.32 275.521   5 
   3  -1  -7 790.249 130.893   6 
   3  -1  -7 931.340 130.794   5 
   3  -1  -6 1561.04 152.197   5 
   3  -1  -6 1455.31 165.635   6 
   3  -1  -6 1501.94 178.920   3 
   3  -1  -5-30.5943 32.2607   3 
   3  -1  -5 38.3691 35.0531   6 
   3  -1  -5-9.43926 21.1548   5 
   3  -1  -4 31309.0 661.659   6 
   3  -1  -4 31404.1 469.512   5 
   3  -1  -3 1360.91 128.531   6 
   3  -1  -3 1512.74 85.2001   5 
   3  -1  -2 13225.9 361.456   6 
   3  -1  -2 11289.3 153.888   5 
   3  -1  -1 162.993 38.4306   6 
   3  -1  -1 203.830 41.1263   2 
   3  -1   0 2404.11 124.046   6 
   3  -1   0 2227.14 123.056   2 
   3  -1   0 2520.20 122.061   1 
   3  -1   1 15145.0 281.191   6 
   3  -1   1 14804.7 297.132   1 
   3  -1   1 14531.5 207.903   4 
   3  -1   2 3009.26 110.467   4 
   3  -1   4 5214.50 141.352   6 
   3  -1   5 664.332 57.3677   6 
   3  -1   6 6.39969 13.8026   6 
   3  -1   7 44461.6 565.347   6 
   3   0 -12 49.3041 51.2335   6 
   3   0 -11 3906.65 361.241   6 
   3   0 -10 1372.98 218.065   6 
   3   0  -9 42.0338 51.4865   6 
   3   0  -8 1580.01 206.024   6 
   3   0  -7 449.201 101.636   6 
   3   0  -6 3044.05 256.584   3 
   3   0  -6 2938.82 231.754   6 
   3   0  -5 427.281 85.9166   6 
   3   0  -4 3063.70 204.145   6 
   3   0  -3 1005.88 108.770   6 
   3   0  -2 44396.7 646.660   6 
   3   0  -1 255.128 42.6994   6 
   3   0   0 3689.74 147.762   6 
   3   0   0 3672.07 172.094   1 
   3   0   1 4519.26 126.689   6 
   3   1 -12-147.314 114.709   6 
   3   1 -11 210.000 104.459   6 
   3   1 -10 136.143 48.6035   6 
   3   1  -9-0.36260 47.1477   6 
   3   1  -8 585.878 133.699   6 
   3   1  -7 1029.65 158.850   6 
   3   1  -6 1156.44 157.809   3 
   3   1  -6 1213.21 150.395   6 
   3   1  -5 47.1522 33.6268   6 
   3   1  -5 121.266 52.0875   3 
   3   1  -4 56414.2 898.629   6 
   3   1  -3 2623.66 183.076   6 
   3   1  -3 2584.44 118.040   5 
   3   1  -2 20246.4 270.408   5 
   3   1  -2 21580.2 461.094   6 
   3   1  -1 358.460 54.5539   6 
   3   1  -1 378.071 44.2765   5 
   3   1   0 14815.6 317.179   6 
   3   1   1 4962.19 158.443   6 
   3   1   2 4599.33 121.411   4 
   3   1   3 191.007 33.5266   4 
   3   1   3 205.699 55.9930   2 
   3   1   4 4605.99 191.079   4 
   3   1   5 2104.56 154.655   4 
   3   1   6 2128.31 182.181   4 
   3   1   7 2590.79 231.734   4 
   3   1   8 1228.96 168.137   4 
   3   2 -11-10.1030 54.9763   6 
   3   2 -10-35.7335 59.7049   6 
   3   2  -9 868.798 165.704   6 
   3   2  -8 1667.99 212.637   6 
   3   2  -7 3745.36 297.695   6 
   3   2  -6 3210.88 266.982   3 
   3   2  -6 3056.37 257.171   6 
   3   2  -5 444.179 99.8650   6 
   3   2  -5 430.029 92.1329   3 
   3   2  -4 6128.47 254.485   5 
   3   2  -4 6569.62 331.915   3 
   3   2  -4 5666.32 305.484   6 
   3   2  -3 7243.20 240.903   5 
   3   2  -3 7535.27 327.781   3 
   3   2  -3 6711.55 306.213   6 
   3   2  -2 486.920 73.0472   6 
   3   2  -2 428.482 56.1583   5 
   3   2  -2 488.151 79.8095   3 
   3   2  -1 14077.9 337.283   5 
   3   2  -1 13793.2 385.429   6 
   3   2   0 255.319 51.3433   5 
   3   2   1 42521.7 717.380   5 
   3   2   1 38325.1 475.868   4 
   3   2   2 120473. 1244.28   2 
   3   2   2 125284. 880.844   4 
   3   2   3 3586.26 225.003   2 
   3   2   3 3910.68 167.765   4 
   3   2   4 6.48072 31.3647   2 
   3   2   4-0.78598 15.7591   4 
   3   2   5 319.635 59.7007   4 
   3   2   5 246.456 62.5084   2 
   3   2   6 1727.26 190.946   2 
   3   2   6 1580.52 153.325   4 
   3   2   7 97.0161 38.3058   4 
   3   3 -10 139.639 72.8623   6 
   3   3  -9 570.207 147.479   6 
   3   3  -8 92.2055 59.1550   6 
   3   3  -7-6.69327 49.7153   6 
   3   3  -6 30.4914 41.5574   6 
   3   3  -6 34.1265 43.0082   5 
   3   3  -5-31.1227 51.7649   6 
   3   3  -5 24.1126 48.3244   3 
   3   3  -5-23.0630 34.1851   5 
   3   3  -4 1617.44 174.027   6 
   3   3  -4 1801.64 157.168   5 
   3   3  -4 1757.09 177.511   3 
   3   3  -3 4414.40 221.627   5 
   3   3  -3 4870.16 270.048   3 
   3   3  -3 4924.03 282.095   1 
   3   3  -3 4585.35 276.538   6 
   3   3  -2 3245.39 211.214   1 
   3   3  -2 3182.06 178.401   5 
   3   3  -2 3569.93 210.715   3 
   3   3  -1 3274.38 184.445   5 
   3   3   0 37.6263 29.0881   5 
   3   3   1 9085.61 297.449   4 
   3   3   1 9289.87 359.444   2 
   3   3   2 12711.4 458.199   5 
   3   3   2 11607.1 414.691   2 
   3   3   2 11948.7 339.022   4 
   3   3   3 133.672 34.6530   4 
   3   3   3 205.295 69.8065   2 
   3   3   4 652.214 105.203   2 
   3   3   4 669.298 105.180   4 
   3   3   5 102.542 47.4299   4 
   3   3   5 71.7243 39.4094   2 
   3   3   6-0.04115 27.6362   4 
   3   3   6 28.5933 26.5399   2 
   3   3   7-23.0955 37.5202   4 
   3   3   7-28.3156 60.7037   2 
   3   3   8-75.9903 62.5129   2 
   3   3   9 69.6968 73.1353   2 
   3   3  10 133.242 111.844   2 
   3   4 -10 154.411 82.6361   5 
   3   4  -9 898.415 162.170   5 
   3   4  -8 37.7580 40.2240   5 
   3   4  -7-52.5374 43.6210   5 
   3   4  -6 12.9172 31.6747   5 
   3   4  -5 289.138 78.1661   3 
   3   4  -5 467.744 115.470   1 
   3   4  -5 413.657 90.2888   5 
   3   4  -4 675.676 117.841   3 
   3   4  -4 575.724 100.797   5 
   3   4  -4 677.993 118.911   1 
   3   4  -3 39150.8 825.121   1 
   3   4  -3 40446.8 800.494   3 
   3   4  -2 1195.48 135.539   1 
   3   4  -2 1251.24 130.887   5 
   3   4  -2 1056.14 113.420   3 
   3   4  -1 176.148 56.1039   1 
   3   4  -1 149.371 46.7268   5 
   3   4   0 5440.04 283.834   5 
   3   4   1 3643.67 244.862   5 
   3   4   1 3674.33 221.554   4 
   3   4   2 10372.0 444.148   5 
   3   4   2 10147.5 364.377   4 
   3   4   2 9434.78 391.319   2 
   3   4   3 17.5976 20.6343   4 
   3   4   3 36.7507 34.5554   2 
   3   4   4 69.7302 38.4821   4 
   3   4   4 104.699 55.5726   2 
   3   4   5 1546.32 178.316   2 
   3   4   5 1451.30 155.896   4 
   3   4   6 15310.3 572.794   2 
   3   4   6 16177.2 561.769   4 
   3   4   7 94.9872 66.1776   2 
   3   4   8 1891.39 220.016   2 
   3   4   9 50.0587 53.5954   2 
   3   4  10-19.2164 78.1084   2 
   3   5 -10 171.504 80.7110   5 
   3   5  -9 691.279 143.273   5 
   3   5  -8 73.1061 50.7847   5 
   3   5  -8 224.928 86.8459   1 
   3   5  -7 535.739 128.702   1 
   3   5  -7 310.762 90.7404   5 
   3   5  -6 181.706 75.7716   5 
   3   5  -6 263.966 91.5486   1 
   3   5  -5 692.195 134.392   1 
   3   5  -5 788.465 139.074   3 
   3   5  -5 582.362 124.944   5 
   3   5  -4 547.522 110.455   3 
   3   5  -4 517.194 103.983   1 
   3   5  -4 313.003 88.6443   5 
   3   5  -3 89.3714 61.5008   1 
   3   5  -3 288.765 71.1753   3 
   3   5  -3 204.779 65.4393   5 
   3   5  -2 1269.03 151.398   5 
   3   5  -2 1104.91 142.562   1 
   3   5  -1 1964.97 182.110   5 
   3   5   0 4169.90 269.644   5 
   3   5   1 174.075 55.6846   4 
   3   5   1 126.883 48.8939   5 
   3   5   2 395.134 89.1288   4 
   3   5   2 412.526 92.7785   5 
   3   5   3 565.565 102.235   4 
   3   5   3 546.194 118.420   5 
   3   5   3 546.247 107.100   2 
   3   5   4 720.340 113.906   4 
   3   5   4 611.675 114.139   2 
   3   5   5 531.250 107.785   4 
   3   5   5 644.855 125.296   2 
   3   5   6 359.566 82.3749   4 
   3   5   6 431.868 104.169   2 
   3   5   7 352.889 88.0285   2 
   3   5   8 68.5308 39.1698   2 
   3   5   9 282.641 89.5955   2 
   3   6  -9 21.7542 65.3699   5 
   3   6  -9-77.6251 82.8625   1 
   3   6  -8 1256.82 196.311   5 
   3   6  -8 1441.50 200.111   1 
   3   6  -7 591.082 140.475   1 
   3   6  -7 473.643 118.739   5 
   3   6  -6 2878.46 275.334   1 
   3   6  -6 2414.99 275.110   5 
   3   6  -5 301.396 92.3401   3 
   3   6  -5 270.924 95.9936   5 
   3   6  -5 225.270 84.2436   1 
   3   6  -4 1536.35 185.512   1 
   3   6  -4 1510.47 203.022   5 
   3   6  -4 1693.69 190.970   3 
   3   6  -3 1910.41 223.264   5 
   3   6  -3 1908.84 205.422   1 
   3   6  -3 1925.99 174.096   3 
   3   6  -2 2177.65 224.750   5 
   3   6  -1 1010.90 145.651   5 
   3   6   0 7278.31 390.452   5 
   3   6   1 21380.4 675.307   5 
   3   6   1 21960.8 700.203   4 
   3   6   2 650.961 127.572   4 
   3   6   2 667.642 133.191   5 
   3   6   3 1356.72 196.164   5 
   3   6   3 1511.55 176.748   4 
   3   6   4 1367.93 173.200   4 
   3   6   4 1446.83 179.672   2 
   3   6   5 389.142 104.332   2 
   3   6   6 435.093 107.176   2 
   3   6   7 1837.08 220.117   2 
   3   6   8 139.030 51.6352   2 
   3   7  -9 1715.28 248.480   5 
   3   7  -8 5259.60 379.267   1 
   3   7  -8 4504.28 391.160   5 
   3   7  -7 856.493 178.899   5 
   3   7  -7 900.537 156.778   1 
   3   7  -6 421.204 106.272   1 
   3   7  -6 482.885 143.701   5 
   3   7  -5-23.5825 58.3912   5 
   3   7  -5 40.3285 66.3053   1 
   3   7  -4 139.426 54.3758   1 
   3   7  -4 200.865 68.3458   3 
   3   7  -4 167.671 89.0456   5 
   3   7  -3 29.5274 49.3263   5 
   3   7  -2 259.960 99.2369   5 
   3   7  -1 628.881 129.036   5 
   3   7   0 5557.72 374.909   5 
   3   7   1 18686.5 678.119   5 
   3   7   2 372.349 105.498   5 
   3   7   3 2127.49 247.331   5 
   3   7   4 513.414 121.690   5 
   3   7   7 164.544 88.8663   2 
   3   8  -8 354.807 120.136   5 
   3   8  -7 178.482 108.935   5 
   3   8  -6 94.0063 83.3655   1 
   3   8  -6 25.6695 70.6081   5 
   3   8  -5 1792.54 265.576   5 
   3   8  -4 697.962 160.690   5 
   3   8  -3 802.702 176.579   5 
   3   8  -2 2921.74 306.067   5 
   3   8  -1 472.946 120.165   5 
   3   8   0 3398.02 325.151   5 
   3   8   1 202.666 86.6076   5 
   3   8   2 874.348 164.521   5 
   3   8   3 583.444 139.602   5 
   3   8   4 88.3437 72.5277   5 
   3   9  -7 129.350 93.7192   5 
   3   9  -6 83.8322 85.8924   5 
   3   9  -5-51.9045 83.9423   5 
   3   9  -4 431.449 139.518   5 
   3   9  -3 27.9853 88.3560   5 
   3   9  -2 82.1444 71.8793   5 
   3   9  -1 361.039 136.993   5 
   3   9   0 270.805 102.931   5 
   3   9   1-46.1739 76.7623   5 
   3   9   2 329.256 112.641   5 
   3   9   3 405.038 120.679   5 
   3   9   4 500.388 135.341   5 
   3  10  -4 300.951 161.572   5 
   3  10  -3-151.806 117.712   5 
   3  10  -2 44.4440 56.5343   5 
   3  10  -1-6.85206 96.4562   5 
   3  10   0 121.284 62.9633   5 
   3  10   1 2218.68 300.011   5 
   4 -10  -4-94.0995 84.6604   6 
   4 -10  -4-52.1776 67.3234   4 
   4 -10  -3 21.9408 59.0750   4 
   4 -10  -2 341.528 137.823   4 
   4 -10  -1-9.82950 40.3739   4 
   4 -10   0-51.1080 66.8389   4 
   4 -10   1 499.754 159.453   4 
   4 -10   2-48.3637 57.8583   4 
   4 -10   3 155.076 101.303   4 
   4 -10   4 1093.49 226.575   4 
   4 -10   5 222.582 112.324   4 
   4  -9  -6 154.442 80.5560   6 
   4  -9  -5 228.877 106.806   6 
   4  -9  -5-2.70122 45.9520   4 
   4  -9  -4 206.087 82.5497   6 
   4  -9  -4 306.666 120.653   4 
   4  -9  -3 8034.60 532.760   4 
   4  -9  -2 36.5048 55.2636   4 
   4  -9  -1 432.113 125.486   4 
   4  -9   0 327.219 107.287   4 
   4  -9   1 85.3396 59.1845   4 
   4  -9   2 1993.31 261.169   4 
   4  -9   3 1496.41 235.041   4 
   4  -9   4-71.5676 73.8898   4 
   4  -9   5 643.515 179.462   4 
   4  -9   6 1534.53 278.855   4 
   4  -9   7 389.575 166.142   4 
   4  -8  -8-135.525 88.2426   6 
   4  -8  -7 114.523 103.585   6 
   4  -8  -6 1301.10 219.557   6 
   4  -8  -5 147.725 85.1963   6 
   4  -8  -4 2837.28 323.536   6 
   4  -8  -4 2938.14 315.233   4 
   4  -8  -3 4423.68 372.640   4 
   4  -8  -2 1453.10 210.894   4 
   4  -8  -1 2935.27 291.360   4 
   4  -8   0 258.850 100.419   4 
   4  -8   1 299.814 98.5683   4 
   4  -8   1 144.049 32.9010   1 
   4  -8   2 178.025 81.1472   4 
   4  -8   3 122.763 84.9216   4 
   4  -8   4 1702.04 237.054   4 
   4  -8   5 2482.53 299.177   4 
   4  -8   6 1644.87 260.698   4 
   4  -8   7-47.0752 79.9238   4 
   4  -8   8-20.8490 96.4903   4 
   4  -7  -9 58.9307 66.6288   6 
   4  -7  -8 997.693 191.804   6 
   4  -7  -7 724.968 151.176   6 
   4  -7  -6 4003.42 347.624   6 
   4  -7  -5-42.3378 69.5104   6 
   4  -7  -4 1576.98 217.814   6 
   4  -7  -4 1384.55 201.437   4 
   4  -7  -3 224.264 83.1054   4 
   4  -7  -2 571.310 127.513   4 
   4  -7  -1 303.638 92.6849   4 
   4  -7   0 1373.86 184.262   4 
   4  -7   1 203.000 81.8175   4 
   4  -7   1 46.5046 16.9737   1 
   4  -7   2 9042.87 472.554   4 
   4  -7   3 133.808 46.2855   4 
   4  -7   4 176.180 89.1798   4 
   4  -7   5 231.179 89.4707   4 
   4  -7   6 634.775 151.640   4 
   4  -7   7 385.287 132.744   4 
   4  -7   8 321.229 119.074   4 
   4  -7   9-31.9308 61.9607   4 
   4  -6 -10 126.518 92.4045   6 
   4  -6  -9 1087.58 185.183   6 
   4  -6  -8 12652.4 618.602   6 
   4  -6  -7 1183.14 188.324   6 
   4  -6  -6 997.545 163.938   6 
   4  -6  -6 1143.26 177.874   3 
   4  -6  -5 625.882 131.772   6 
   4  -6  -5 792.550 130.469   3 
   4  -6  -5 960.013 167.321   5 
   4  -6  -4 313.676 92.4434   6 
   4  -6  -4 548.352 124.870   5 
   4  -6  -4 324.898 103.283   4 
   4  -6  -3 2868.68 259.308   5 
   4  -6  -3 3274.89 282.140   4 
   4  -6  -3 2781.65 266.212   6 
   4  -6  -2 3314.17 259.492   5 
   4  -6  -2 3819.33 283.747   4 
   4  -6  -1-5.10752 8.94683   2 
   4  -6  -1-13.5714 39.2694   4 
   4  -6   0 8092.85 404.978   4 
   4  -6   1 34482.5 829.958   4 
   4  -6   2 652.910 115.640   4 
   4  -6   3 15027.3 576.747   4 
   4  -6   4 122.096 61.8241   4 
   4  -6   5 962.791 177.995   4 
   4  -6   6 307.320 118.624   4 
   4  -6   7 490.660 149.759   4 
   4  -6   8 200.124 107.886   4 
   4  -6   9 626.061 164.657   4 
   4  -5 -10 271.015 103.913   6 
   4  -5  -9 2710.20 281.380   6 
   4  -5  -8 311.106 97.8297   6 
   4  -5  -7 1742.25 210.710   6 
   4  -5  -6 796.628 137.710   6 
   4  -5  -6 1011.78 164.825   3 
   4  -5  -6 1256.54 176.596   5 
   4  -5  -5 1493.91 184.350   6 
   4  -5  -5 2178.04 216.747   5 
   4  -5  -5 1984.92 216.356   3 
   4  -5  -4 26.8090 36.9771   6 
   4  -5  -4-1.34959 35.6100   3 
   4  -5  -4-5.64473 38.1736   5 
   4  -5  -3 5727.39 355.567   6 
   4  -5  -3 6098.00 330.900   5 
   4  -5  -3 6183.92 348.913   4 
   4  -5  -2 2219.24 221.618   6 
   4  -5  -2 2108.25 181.992   5 
   4  -5  -2 2425.85 212.437   4 
   4  -5  -1 53.2569 17.4430   2 
   4  -5  -1 9.42860 31.7063   4 
   4  -5   0 29.6844 29.1375   4 
   4  -5   1 415.168 86.3300   4 
   4  -5   2 4937.99 289.040   4 
   4  -5   3 976.813 136.866   4 
   4  -5   4 71.7839 58.6258   4 
   4  -5   5 1371.32 190.157   4 
   4  -5   6 8533.12 483.290   4 
   4  -5   6 7855.66 406.543   6 
   4  -5   7 1841.42 252.788   4 
   4  -5   8 378.527 126.771   4 
   4  -5   9 150.992 94.6345   4 
   4  -5  10 105.333 82.6741   4 
   4  -4 -11 476.530 132.049   6 
   4  -4 -10-56.9360 52.8254   6 
   4  -4  -9 566.126 129.601   6 
   4  -4  -8 1451.23 199.451   6 
   4  -4  -7 834.526 141.072   6 
   4  -4  -7 1215.85 163.303   5 
   4  -4  -6 156.699 64.0136   6 
   4  -4  -6 167.174 83.7392   3 
   4  -4  -6 175.694 74.1232   5 
   4  -4  -5 695.349 118.701   6 
   4  -4  -5 986.869 149.109   3 
   4  -4  -4 188.385 69.6438   6 
   4  -4  -4 208.743 75.6945   3 
   4  -4  -4 239.576 61.1588   5 
   4  -4  -3 7421.95 373.042   6 
   4  -4  -3 8499.16 321.017   5 
   4  -4  -3 8069.32 368.666   3 
   4  -4  -2 82.2893 45.0013   6 
   4  -4  -2 96.8768 33.8278   5 
   4  -4  -2 151.423 55.1534   4 
   4  -4  -1 56.2799 23.7988   2 
   4  -4  -1 99.5638 41.6076   4 
   4  -4   0 169.564 53.8350   4 
   4  -4   1 1184.26 128.065   4 
   4  -4   1 957.922 59.9516   1 
   4  -4   2 3146.22 206.548   4 
   4  -4   3 1038.76 122.544   4 
   4  -4   4 1346.51 153.743   4 
   4  -4   5 1096.25 152.581   4 
   4  -4   6 575.729 104.298   6 
   4  -4   6 368.839 97.6182   4 
   4  -4   7 1459.41 199.359   4 
   4  -4   8 278.509 108.732   4 
   4  -4   9 415.255 123.560   4 
   4  -4  10 85.3680 75.7488   4 
   4  -3 -11-15.8189 74.8515   6 
   4  -3 -10 291.901 93.6645   6 
   4  -3  -9 889.446 163.314   6 
   4  -3  -8 171.465 81.3290   6 
   4  -3  -8 331.457 88.7349   5 
   4  -3  -7 1184.53 166.263   6 
   4  -3  -7 1425.70 164.014   5 
   4  -3  -6 279.337 83.0149   6 
   4  -3  -6 290.838 98.8853   3 
   4  -3  -6 282.327 67.6909   5 
   4  -3  -5 35.6745 36.5781   6 
   4  -3  -5 40.8540 43.8249   3 
   4  -3  -5 3.81943 35.6644   5 
   4  -3  -4 1892.05 187.315   6 
   4  -3  -4 2133.67 150.970   5 
   4  -3  -4 2201.84 203.785   3 
   4  -3  -3 1529.03 157.547   6 
   4  -3  -3 1565.99 114.622   5 
   4  -3  -3 1469.35 156.788   3 
   4  -3  -2 17.8847 34.0483   6 
   4  -3  -2 28.5591 24.7603   5 
   4  -3  -1 357.098 80.2587   6 
   4  -3  -1 343.018 50.6154   2 
   4  -3  -1 339.750 65.2340   4 
   4  -3   0 1863.07 124.685   2 
   4  -3   0 1950.29 139.587   4 
   4  -3   1 17575.4 415.690   4 
   4  -3   1 16614.0 292.180   1 
   4  -3   2 19153.2 437.603   4 
   4  -3   3 3753.78 205.822   4 
   4  -3   4 4470.84 252.913   4 
   4  -3   5 820.901 122.819   4 
   4  -3   5 887.978 107.353   6 
   4  -3   6 126.069 44.0017   6 
   4  -3   6 138.351 45.7226   4 
   4  -3   7 5081.02 354.293   4 
   4  -3   7 4627.22 236.645   6 
   4  -3   8 26.0309 34.9227   4 
   4  -2 -11 31.7772 39.3507   6 
   4  -2 -10 523.008 130.181   6 
   4  -2  -9-10.0860 47.1583   6 
   4  -2  -8 3425.59 304.950   6 
   4  -2  -8 3673.46 273.380   5 
   4  -2  -7 320.411 90.9709   6 
   4  -2  -7 273.642 71.4465   5 
   4  -2  -6 628.130 122.922   6 
   4  -2  -6 688.744 104.460   5 
   4  -2  -5 789.759 123.089   6 
   4  -2  -5 917.088 104.594   5 
   4  -2  -5 845.869 133.122   3 
   4  -2  -4 859.859 126.140   6 
   4  -2  -4 979.082 85.5922   5 
   4  -2  -4 870.042 124.824   3 
   4  -2  -3 4918.92 271.094   6 
   4  -2  -3 5643.29 168.879   5 
   4  -2  -3 5034.17 284.102   3 
   4  -2  -2 23161.5 551.382   6 
   4  -2  -2 23782.9 577.398   3 
   4  -2  -1 3034.07 187.646   6 
   4  -2  -1 3120.88 162.699   2 
   4  -2   0 2959.03 173.981   6 
   4  -2   0 2896.53 159.651   2 
   4  -2   0 3024.08 150.804   4 
   4  -2   1 17811.6 405.479   6 
   4  -2   1 18545.5 361.664   1 
   4  -2   1 17931.0 436.224   2 
   4  -2   1 18426.5 341.826   4 
   4  -2   2 9204.58 249.195   4 
   4  -2   3 1095.43 95.3190   4 
   4  -2   4 445.558 74.9208   4 
   4  -2   5 586.250 94.4141   4 
   4  -2   5 607.142 65.7688   6 
   4  -2   6 2022.89 124.988   6 
   4  -2   7 65.7482 32.0884   6 
   4  -1 -11-36.1345 52.9198   6 
   4  -1 -10 332.251 116.223   6 
   4  -1  -9 1323.16 215.089   6 
   4  -1  -8 606.665 134.320   6 
   4  -1  -8 629.252 109.165   5 
   4  -1  -7 1402.42 185.523   6 
   4  -1  -7 1074.65 128.872   5 
   4  -1  -6 6.68640 32.8470   6 
   4  -1  -6 24.6705 19.1657   5 
   4  -1  -5 75.8553 44.0703   6 
   4  -1  -5 38.4465 34.0763   3 
   4  -1  -5 91.6440 32.2146   5 
   4  -1  -4 6100.73 312.085   6 
   4  -1  -4 5836.82 175.057   5 
   4  -1  -4 6313.90 337.895   3 
   4  -1  -3 2751.81 195.565   6 
   4  -1  -2 19011.5 468.452   6 
   4  -1  -1 19388.2 436.955   6 
   4  -1  -1 21121.1 456.297   2 
   4  -1   0 814.994 82.2053   6 
   4  -1   0 835.053 95.6061   2 
   4  -1   0 802.983 86.3014   1 
   4  -1   1 2118.08 119.604   6 
   4  -1   1 2145.74 141.826   1 
   4  -1   1 2052.52 148.336   2 
   4  -1   2 8319.34 210.080   6 
   4  -1   2 5421.40 124.232   4 
   4  -1   3 198.560 30.9370   6 
   4  -1   3 112.001 22.5665   4 
   4   0 -11-116.491 78.9097   6 
   4   0 -10-56.6428 74.7776   6 
   4   0  -9 685.379 151.621   6 
   4   0  -8 1184.20 182.584   6 
   4   0  -7 648.514 127.203   6 
   4   0  -6 274.451 78.6191   6 
   4   0  -5 636.774 111.675   6 
   4   0  -5 671.594 125.695   3 
   4   0  -4 148329. 1514.49   6 
   4   0  -4 125043. 699.517   5 
   4   0  -3 16908.6 473.780   6 
   4   0  -2 10502.7 346.906   6 
   4   0  -1 1101.28 106.939   6 
   4   0  -1 937.581 101.028   1 
   4   0  -1 998.408 108.007   2 
   4   0   0 410.600 55.5757   6 
   4   0   0 387.325 68.9527   2 
   4   0   0 406.296 64.3673   1 
   4   0   1 4070.69 148.048   6 
   4   0   1 4425.21 220.389   1 
   4   0   2 1260.35 69.7345   6 
   4   0   3 100.666 17.4258   4 
   4   1 -11 99.4191 99.2353   6 
   4   1 -10 106.121 61.0453   6 
   4   1  -9 102.050 55.8000   6 
   4   1  -8 323.857 89.9536   6 
   4   1  -7-3.35529 27.8116   6 
   4   1  -6 39.3337 34.1330   6 
   4   1  -5 311.758 78.2086   6 
   4   1  -5 395.040 91.8967   3 
   4   1  -4 12233.1 275.227   5 
   4   1  -4 12854.2 459.494   6 
   4   1  -3 38131.9 793.008   3 
   4   1  -3 35938.9 718.555   6 
   4   1  -2 4240.75 130.089   5 
   4   1  -2 4944.54 267.349   3 
   4   1  -2 4397.16 225.606   6 
   4   1  -1 662.687 81.1495   6 
   4   1   0 1311.58 132.936   1 
   4   1   0 1313.69 107.096   6 
   4   1   1 3878.94 167.005   6 
   4   1   3 7449.51 346.918   2 
   4   1   3 4943.36 130.229   4 
   4   1   4-46.0623 49.4158   2 
   4   1   4-2.56104 17.1196   4 
   4   1   5 7189.16 382.135   2 
   4   1   5 6543.04 235.066   4 
   4   1   6 2797.60 257.297   2 
   4   1   6 2445.93 169.969   4 
   4   1   7-1.56404 34.8156   4 
   4   2 -11-55.9169 64.8875   6 
   4   2 -10 80.5109 57.9100   6 
   4   2  -9 918.442 176.126   6 
   4   2  -8 56.9268 54.2047   6 
   4   2  -7 2311.14 247.091   6 
   4   2  -6 53.2645 46.5669   6 
   4   2  -6 58.8259 34.5635   5 
   4   2  -5 2823.81 182.739   5 
   4   2  -5 2935.72 250.714   3 
   4   2  -5 2452.00 230.238   6 
   4   2  -4 187.416 65.1175   6 
   4   2  -4 170.263 58.6159   3 
   4   2  -4 115.764 32.5572   5 
   4   2  -3 410.546 81.6890   6 
   4   2  -3 492.249 93.6330   3 
   4   2  -3 357.687 50.8772   5 
   4   2  -2 125.721 50.3304   6 
   4   2  -2 155.141 51.8140   3 
   4   2  -2 140.109 37.0870   5 
   4   2  -1 5709.04 232.361   5 
   4   2  -1 5018.43 252.054   6 
   4   2   0 8126.19 293.931   6 
   4   2   2 1491.47 153.524   2 
   4   2   3 595.550 102.157   2 
   4   2   3 599.075 64.6204   4 
   4   2   4 2523.69 219.926   2 
   4   2   4 2435.13 135.816   4 
   4   2   5 3827.38 279.113   2 
   4   2   5 3289.97 179.493   4 
   4   2   6 517.380 112.409   2 
   4   2   6 466.561 80.0923   4 
   4   2   7 542.832 100.137   4 
   4   2   7 523.319 124.902   2 
   4   2   8 16.1132 38.5417   2 
   4   2   9 912.474 201.409   2 
   4   2  10 73.2195 67.1594   2 
   4   3 -10 5.57383 77.3241   6 
   4   3  -9 1636.82 191.865   5 
   4   3  -9 2384.50 286.732   6 
   4   3  -8 39.3754 60.7602   6 
   4   3  -8 45.8530 33.7645   5 
   4   3  -7 198.719 80.1259   6 
   4   3  -7 93.8275 40.5936   5 
   4   3  -6 104.025 71.5086   6 
   4   3  -6-40.2741 36.7702   5 
   4   3  -5 4122.36 305.037   6 
   4   3  -5 4104.19 249.453   5 
   4   3  -5 4569.82 329.256   3 
   4   3  -4 32.4546 24.6913   6 
   4   3  -4 70.4195 44.2731   1 
   4   3  -4 2.61309 18.9377   5 
   4   3  -3 1802.67 136.873   5 
   4   3  -3 2189.10 199.760   3 
   4   3  -3 1919.97 190.242   1 
   4   3  -3 1836.49 183.542   6 
   4   3  -2 1420.27 154.362   1 
   4   3  -2 1584.65 133.122   5 
   4   3  -2 1490.82 156.976   6 
   4   3  -1 6074.24 270.980   5 
   4   3   0 15258.4 471.992   5 
   4   3   1 248.895 69.7571   5 
   4   3   1 184.482 56.8207   2 
   4   3   2 2995.78 231.816   2 
   4   3   2 3110.93 168.315   4 
   4   3   3 3028.48 240.970   2 
   4   3   3 3028.25 175.213   4 
   4   3   4 137.900 39.8237   4 
   4   3   4 218.082 78.5234   2 
   4   3   5 32.3489 33.1121   4 
   4   3   5 23.1895 41.0671   2 
   4   3   6 8358.46 442.904   2 
   4   3   6 8138.07 344.615   4 
   4   3   7 33.5199 47.1148   2 
   4   3   8 207.074 89.5172   2 
   4   3   9 1154.89 211.709   2 
   4   3  10 431.666 120.109   2 
   4   4  -9 271.133 82.1540   5 
   4   4  -8 255.986 75.9413   5 
   4   4  -7-0.05650 44.6731   5 
   4   4  -6 167.654 66.8774   5 
   4   4  -6 218.825 86.7158   1 
   4   4  -5 31.5468 31.7920   5 
   4   4  -5 77.9897 63.4593   1 
   4   4  -4 115.250 52.4473   3 
   4   4  -4 9.01204 35.4466   5 
   4   4  -4 39.6546 53.2192   1 
   4   4  -3 1100.79 150.805   1 
   4   4  -3 963.241 118.356   5 
   4   4  -3 1108.10 146.996   3 
   4   4  -2 233.199 78.4815   1 
   4   4  -2 276.593 62.5595   5 
   4   4  -1 83.1417 46.9601   1 
   4   4  -1 132.095 36.7430   5 
   4   4   0 2115.72 191.534   5 
   4   4   1 6918.97 374.985   5 
   4   4   2 5766.26 275.893   4 
   4   4   2 5399.33 323.784   2 
   4   4   3 897.338 138.248   2 
   4   4   3 1083.46 121.456   4 
   4   4   4 156.406 48.1328   4 
   4   4   4 97.7145 64.9684   2 
   4   4   5 796.194 136.837   2 
   4   4   5 795.751 114.545   4 
   4   4   6 107.062 41.7747   2 
   4   4   7 161.950 83.9883   2 
   4   4   8 0.84160 44.3243   2 
   4   4   9 17.1422 65.1606   2 
   4   4  10 117.573 88.1338   2 
   4   5 -10 126.517 92.9754   1 
   4   5  -9 440.243 115.394   5 
   4   5  -9 455.073 122.075   1 
   4   5  -8 68.3462 81.5141   1 
   4   5  -8 75.2122 79.2285   5 
   4   5  -7 117.323 76.3899   5 
   4   5  -7 42.1560 61.6742   1 
   4   5  -6 385.851 97.5349   5 
   4   5  -6 350.221 101.884   1 
   4   5  -5 12328.2 600.673   1 
   4   5  -5 10730.2 498.236   5 
   4   5  -4 115.327 53.0910   3 
   4   5  -4 15.3002 42.2656   5 
   4   5  -4 2.89040 37.1749   1 
   4   5  -3 4887.01 334.744   1 
   4   5  -3 4716.78 299.591   5 
   4   5  -3 4844.77 299.928   3 
   4   5  -2 27.6483 43.2263   1 
   4   5  -2-46.8776 37.3518   5 
   4   5  -1 620.893 104.317   5 
   4   5   0 273.319 76.6757   5 
   4   5   1 6242.01 366.770   5 
   4   5   2 1392.57 183.320   5 
   4   5   2 1416.26 153.523   4 
   4   5   3 9314.23 401.833   4 
   4   5   3 8504.83 439.918   2 
   4   5   4 3144.10 231.646   4 
   4   5   4 3327.72 283.751   2 
   4   5   5-5.65726 60.8695   4 
   4   5   5 28.9525 65.0117   2 
   4   5   6 380.966 109.605   2 
   4   5   7 35.2312 45.0296   2 
   4   5   8 1129.47 190.130   2 
   4   5   9 1308.53 210.598   2 
   4   6  -9 693.528 154.131   1 
   4   6  -8 1391.07 207.063   5 
   4   6  -8 1624.18 226.534   1 
   4   6  -7 288.190 91.4237   1 
   4   6  -7 258.439 91.3838   5 
   4   6  -6 48.9612 78.2357   1 
   4   6  -6-28.7891 54.9995   5 
   4   6  -5-35.5866 44.5780   5 
   4   6  -5-73.2573 78.1461   1 
   4   6  -4 871.087 142.693   3 
   4   6  -4 815.948 142.747   5 
   4   6  -4 815.205 163.339   1 
   4   6  -3 8.21742 45.6318   1 
   4   6  -3 117.794 61.2186   5 
   4   6  -2 282.401 88.9373   5 
   4   6  -1 272.303 83.4467   5 
   4   6   0 25776.4 747.942   5 
   4   6   1 38937.3 959.947   5 
   4   6   2 6272.78 404.687   5 
   4   6   2 6296.16 368.155   4 
   4   6   3 15.0536 44.0120   4 
   4   6   3 1.55387 45.7268   5 
   4   6   4 639.621 113.495   4 
   4   6   4 637.945 122.355   2 
   4   6   5 224.367 75.3050   2 
   4   6   6 27.4017 58.2666   2 
   4   6   7 154.453 50.7876   2 
   4   6   8 130.086 93.8615   2 
   4   7  -8 139.181 91.0830   1 
   4   7  -7 82.6790 63.3302   5 
   4   7  -7 128.994 62.1469   1 
   4   7  -6 261.687 117.302   1 
   4   7  -6 99.9837 86.4962   5 
   4   7  -5 12.7029 67.4025   1 
   4   7  -5 214.795 103.136   5 
   4   7  -4 1034.10 178.515   1 
   4   7  -4 964.399 178.931   5 
   4   7  -3 311.573 100.534   5 
   4   7  -2 415.063 108.953   5 
   4   7  -1 1716.55 214.366   5 
   4   7   0 4325.55 330.100   5 
   4   7   1 8365.86 477.626   5 
   4   7   2 168.832 86.4878   5 
   4   7   3 871.538 171.548   5 
   4   7   7 895.589 163.680   2 
   4   8  -7 152.073 74.7662   1 
   4   8  -7 233.509 123.373   5 
   4   8  -6 20.2580 69.9462   1 
   4   8  -6-53.0958 67.5429   5 
   4   8  -5 1090.76 209.494   5 
   4   8  -4 1032.74 212.270   5 
   4   8  -3 86.8214 69.2682   5 
   4   8  -2 81.2385 70.5706   5 
   4   8  -1 263.896 94.8722   5 
   4   8   0 2831.86 290.562   5 
   4   8   1 234.591 74.2511   5 
   4   8   2 46.2152 53.7609   5 
   4   8   3-150.849 81.8300   5 
   4   9  -6 250.014 106.080   5 
   4   9  -5 2552.75 343.534   5 
   4   9  -4 208.161 90.1314   5 
   4   9  -3 434.498 143.003   5 
   4   9  -2 304.604 120.455   5 
   4   9  -1 1111.28 215.474   5 
   4   9   0 59.0664 81.2469   5 
   4   9   1 66.4280 77.2534   5 
   4   9   2 44.0795 56.1683   5 
   4   9   3 1674.83 249.941   5 
   4  10  -3 85.3476 82.8885   5 
   4  10  -2 103.685 113.463   5 
   4  10  -1 12.3793 68.6145   5 
   5 -10  -3 11.5982 51.9792   6 
   5 -10  -3-127.893 106.492   4 
   5 -10  -2 962.596 197.200   4 
   5 -10  -1 339.811 139.069   4 
   5 -10   0 1874.38 278.069   4 
   5 -10   1 211.370 110.452   4 
   5 -10   2 1611.11 255.851   4 
   5 -10   3-166.978 119.907   4 
   5 -10   4 67.2171 68.7631   4 
   5  -9  -6-23.6680 66.9990   6 
   5  -9  -5 395.908 133.699   6 
   5  -9  -4 32.1098 86.9624   6 
   5  -9  -4 57.5700 83.0061   4 
   5  -9  -3 245.535 122.780   6 
   5  -9  -3 175.407 88.8512   4 
   5  -9  -2 544.699 144.728   4 
   5  -9  -1 58.5743 64.2101   4 
   5  -9   0 300.700 96.1434   4 
   5  -9   1 1293.43 211.739   4 
   5  -9   2 17.4567 56.4072   4 
   5  -9   3 905.398 186.605   4 
   5  -9   4-179.030 111.063   4 
   5  -9   5 182.160 105.859   4 
   5  -9   6 1097.03 221.823   4 
   5  -9   7 577.294 169.990   4 
   5  -8  -7-4.89434 67.9746   6 
   5  -8  -6-66.0289 60.8790   6 
   5  -8  -5 451.291 140.659   6 
   5  -8  -4 275.328 107.128   6 
   5  -8  -4 323.995 106.173   4 
   5  -8  -3 16.0352 49.5227   6 
   5  -8  -3-48.0594 61.5329   4 
   5  -8  -2-48.4058 66.2630   4 
   5  -8  -1 1044.08 175.198   4 
   5  -8   0 730.786 152.589   4 
   5  -8   1 4021.55 340.516   4 
   5  -8   2 165.363 84.9253   4 
   5  -8   3 745.070 166.069   4 
   5  -8   4 82.6492 61.4934   4 
   5  -8   5 327.297 143.362   4 
   5  -8   6 562.648 154.853   4 
   5  -8   7 1730.51 283.900   4 
   5  -8   8-199.544 135.950   4 
   5  -7  -8 72.1921 57.5198   6 
   5  -7  -7 735.040 157.110   6 
   5  -7  -6 372.274 112.783   6 
   5  -7  -5 306.162 89.2000   6 
   5  -7  -4 127.064 54.1542   6 
   5  -7  -4 124.947 85.9104   4 
   5  -7  -3 465.044 130.612   6 
   5  -7  -3 357.569 106.274   4 
   5  -7  -2 743.158 143.235   4 
   5  -7  -1 1213.16 82.8122   2 
   5  -7  -1 2451.54 251.659   4 
   5  -7   0 3262.51 289.026   4 
   5  -7   1 29355.4 854.044   4 
   5  -7   2 1065.40 161.714   4 
   5  -7   3 226.950 80.8819   4 
   5  -7   4 17.7908 36.8601   4 
   5  -7   5 15.1500 42.6434   4 
   5  -7   6 1.83882 50.9382   4 
   5  -7   7 398.868 134.207   4 
   5  -7   8-95.9020 87.5654   4 
   5  -6  -9 3214.58 332.318   6 
   5  -6  -8 2006.01 254.080   6 
   5  -6  -7 605.080 137.514   6 
   5  -6  -6 258.212 103.090   6 
   5  -6  -5 117.886 49.9738   6 
   5  -6  -5 160.000 78.9613   3 
   5  -6  -5 127.810 48.0949   5 
   5  -6  -4-6.89770 41.2291   6 
   5  -6  -4 43.0218 44.7034   5 
   5  -6  -3 2430.44 257.937   6 
   5  -6  -3 2100.99 208.637   5 
   5  -6  -3 2511.62 256.127   4 
   5  -6  -2 1103.80 172.482   6 
   5  -6  -2 1258.95 173.416   4 
   5  -6  -1 1473.81 98.6665   2 
   5  -6  -1 2021.78 210.262   4 
   5  -6   0 11082.4 485.667   4 
   5  -6   1 202.439 70.2529   4 
   5  -6   2 991.292 148.762   4 
   5  -6   3 1111.21 162.675   4 
   5  -6   4 213.181 83.1902   4 
   5  -6   5 2197.32 248.453   4 
   5  -6   6 67.7252 58.5835   4 
   5  -6   7-141.892 85.2894   4 
   5  -6   8 75.5093 49.2705   4 
   5  -5 -10 3152.96 332.623   6 
   5  -5  -9 104.411 63.6736   6 
   5  -5  -8 1638.41 223.423   6 
   5  -5  -7 564.619 125.208   6 
   5  -5  -6 657.165 140.448   6 
   5  -5  -6 877.716 143.673   5 
   5  -5  -5 51.7362 50.5649   6 
   5  -5  -5 172.650 98.1742   3 
   5  -5  -5 58.7824 37.3328   5 
   5  -5  -4 31.8920 27.0216   6 
   5  -5  -4 111.091 63.8940   3 
   5  -5  -4 91.9055 52.3868   5 
   5  -5  -3 2589.29 242.578   6 
   5  -5  -3 2807.99 202.746   5 
   5  -5  -2 4579.20 325.175   6 
   5  -5  -2 5095.16 317.570   4 
   5  -5  -1 352.967 50.4577   2 
   5  -5  -1 399.782 94.9938   6 
   5  -5  -1 406.809 86.0956   4 
   5  -5   0 835.185 91.4320   2 
   5  -5   0 1019.34 131.383   4 
   5  -5   1 12211.8 461.622   4 
   5  -5   1 7342.03 174.232   1 
   5  -5   2 222.412 59.3604   4 
   5  -5   3 31.0575 39.8015   4 
   5  -5   4 775.401 126.644   4 
   5  -5   5 49.5838 51.7302   4 
   5  -5   6 1885.76 218.002   4 
   5  -5   7-16.3919 47.6397   4 
   5  -5   8 144.952 63.4804   4 
   5  -4 -10 3.87397 53.4841   6 
   5  -4  -9 1110.56 195.643   6 
   5  -4  -8 357.110 110.280   6 
   5  -4  -7 466.484 119.134   6 
   5  -4  -7 717.318 120.282   5 
   5  -4  -6 97.8703 68.1173   6 
   5  -4  -6-36.4808 50.1302   5 
   5  -4  -5 10088.4 377.751   5 
   5  -4  -5 10318.8 527.436   3 
   5  -4  -4 5168.19 331.235   6 
   5  -4  -4 5809.16 261.576   5 
   5  -4  -4 5869.55 368.368   3 
   5  -4  -3 624.932 117.420   6 
   5  -4  -3 575.201 80.2794   5 
   5  -4  -2 199.755 66.6468   6 
   5  -4  -2 156.780 45.5231   4 
   5  -4  -1 8.52024 40.8336   6 
   5  -4  -1-6.51213 19.8394   2 
   5  -4  -1 57.1274 36.6469   4 
   5  -4   0 851.061 125.744   6 
   5  -4   0 849.327 96.5449   2 
   5  -4   0 959.519 115.395   4 
   5  -4   1-47.9262 25.5794   4 
   5  -4   1-0.34254 17.4369   1 
   5  -4   2 10006.5 372.645   4 
   5  -4   3 1.52424 32.5111   4 
   5  -4   4 260.658 64.5211   4 
   5  -4   5 650.938 111.821   4 
   5  -4   6 1282.18 167.627   4 
   5  -4   6 1162.71 138.334   6 
   5  -4   7 938.381 149.563   4 
   5  -4   8 576.854 137.176   4 
   5  -3 -10-0.17763 48.2445   6 
   5  -3  -9 262.201 100.801   6 
   5  -3  -8 211.922 88.6472   6 
   5  -3  -7 319.252 89.0084   6 
   5  -3  -7 633.537 109.601   5 
   5  -3  -6 550.313 117.936   6 
   5  -3  -6 631.534 95.0353   5 
   5  -3  -5 789.242 135.173   6 
   5  -3  -5 705.313 137.105   3 
   5  -3  -5 699.419 84.9865   5 
   5  -3  -4 20134.2 410.022   5 
   5  -3  -4 21075.1 687.767   3 
   5  -3  -3-38.2504 44.9533   6 
   5  -3  -3-5.19780 39.7609   3 
   5  -3  -2 1580.56 164.511   6 
   5  -3  -1 332.989 77.2402   6 
   5  -3  -1 366.620 62.3558   2 
   5  -3   0 3499.70 224.675   6 
   5  -3   0 3306.05 192.679   2 
   5  -3   0 3613.75 198.318   4 
   5  -3   1 1331.97 139.347   6 
   5  -3   1 1318.38 102.181   1 
   5  -3   1 1248.41 130.056   2 
   5  -3   1 1392.83 117.058   4 
   5  -3   2 1111.34 106.314   4 
   5  -3   3 847.037 96.7949   4 
   5  -3   4 87.6242 39.4552   4 
   5  -3   5 1047.74 124.556   4 
   5  -3   5 1188.23 118.182   6 
   5  -3   6 338.289 63.4687   6 
   5  -3   6 380.074 85.3639   4 
   5  -3   7 1014.84 152.781   4 
   5  -3   8 222.249 64.2242   4 
   5  -2 -11-23.7800 44.4205   6 
   5  -2 -10 544.029 138.657   6 
   5  -2  -9 1160.06 201.995   6 
   5  -2  -8 199.991 75.0525   6 
   5  -2  -7 122.293 65.6170   6 
   5  -2  -7 62.7529 20.9729   5 
   5  -2  -6 45.8821 30.9405   6 
   5  -2  -6 138.651 43.5342   5 
   5  -2  -5 549.613 110.074   6 
   5  -2  -5 718.030 131.996   3 
   5  -2  -5 632.654 66.7104   5 
   5  -2  -4 9479.31 422.379   6 
   5  -2  -4 9631.99 208.799   5 
   5  -2  -3 18.5328 22.5652   6 
   5  -2  -3 43.5788 37.1165   3 
   5  -2  -2 83.0571 19.0557   6 
   5  -2  -1 5837.44 277.599   6 
   5  -2  -1 6494.71 273.286   2 
   5  -2   0 43846.5 723.214   6 
   5  -2   0 44089.9 667.967   1 
   5  -2   1 14.5546 34.0445   1 
   5  -2   1 42.1538 29.3489   6 
   5  -2   1 49.1545 19.0023   4 
   5  -2   2 7325.35 269.098   6 
   5  -2   2 7137.93 340.091   2 
   5  -2   2 7215.51 203.997   4 
   5  -2   3 2.20127 14.8523   4 
   5  -2   3 0.36473 13.9204   6 
   5  -2   4 187.034 40.9260   4 
   5  -2   4 211.739 44.5052   6 
   5  -2   5 1978.19 123.583   6 
   5  -2   5 2148.30 163.267   4 
   5  -2   5 1830.69 101.744   6 
   5  -2   6 77.2609 16.8306   6 
   5  -2   6 63.3577 18.1995   6 
   5  -2   7 1020.80 143.319   4 
   5  -2   8 2529.82 242.182   4 
   5  -1 -11 370.249 124.285   6 
   5  -1 -10 2209.82 289.422   6 
   5  -1  -9 67.7719 58.5990   6 
   5  -1  -8 216.458 77.9216   6 
   5  -1  -7 239.007 82.9590   6 
   5  -1  -7 173.359 49.9586   5 
   5  -1  -6 8373.65 440.674   6 
   5  -1  -6 7505.03 257.419   5 
   5  -1  -5 1484.56 174.340   6 
   5  -1  -5 1070.56 65.3077   5 
   5  -1  -5 1644.70 195.435   3 
   5  -1  -4 1713.23 177.662   6 
   5  -1  -4 1980.53 207.492   3 
   5  -1  -3 157.553 54.9376   6 
   5  -1  -3 136.345 54.3887   3 
   5  -1  -2 3943.30 232.574   6 
   5  -1  -1 7292.77 297.342   6 
   5  -1  -1 7050.93 288.111   1 
   5  -1  -1 7808.88 316.921   2 
   5  -1   0 211.193 53.4412   6 
   5  -1   0 235.101 56.6298   1 
   5  -1   0 211.956 58.6464   2 
   5  -1   1 1687.73 125.639   6 
   5  -1   1 1476.42 134.970   1 
   5  -1   1 1667.98 154.783   2 
   5  -1   2 2287.93 123.633   6 
   5  -1   2 2340.20 192.141   2 
   5  -1   3 111.064 22.5937   6 
   5  -1   3 90.1566 41.9823   2 
   5  -1   4-2.66501 15.0764   4 
   5  -1   4 27.7693 21.0911   2 
   5  -1   5 41595.1 627.328   4 
   5   0 -10 432.334 136.318   6 
   5   0  -9-13.7734 56.9144   6 
   5   0  -8 575.237 134.772   6 
   5   0  -7-25.1989 50.5160   6 
   5   0  -7 54.9080 33.0325   5 
   5   0  -6 1335.08 101.085   5 
   5   0  -6 1732.28 203.706   6 
   5   0  -5 421.276 38.8017   5 
   5   0  -5 418.202 35.9325   5 
   5   0  -4 20369.8 595.424   6 
   5   0  -4 23848.9 720.079   3 
   5   0  -3 879.739 121.194   6 
   5   0  -3 1026.38 142.155   3 
   5   0  -2 237.874 64.8859   6 
   5   0  -1 1159.13 117.801   6 
   5   0  -1 952.136 112.267   1 
   5   0  -1 967.382 119.558   2 
   5   0   0 4322.79 197.758   6 
   5   0   0 4438.96 252.886   1 
   5   0   0 4935.91 268.814   2 
   5   0   1 8606.01 353.221   1 
   5   0   1 8320.02 246.785   6 
   5   0   2 4872.67 280.760   2 
   5   0   2 4542.15 164.611   6 
   5   0   3 959.929 130.867   2 
   5   0   4 88.4211 49.2445   2 
   5   0   5 6318.69 376.689   2 
   5   0   5 4061.92 154.176   4 
   5   0   6 12922.8 584.639   2 
   5   0   6 10951.4 336.581   4 
   5   1 -10 235.290 98.7205   6 
   5   1  -9 281.966 107.436   6 
   5   1  -8 332.587 106.797   6 
   5   1  -7-81.2815 45.5944   6 
   5   1  -6 17451.8 642.784   6 
   5   1  -6 15259.3 371.434   5 
   5   1  -5 1802.70 93.4252   5 
   5   1  -5 2538.78 228.311   6 
   5   1  -4 3113.46 259.455   3 
   5   1  -4 2882.49 230.951   6 
   5   1  -3 413.181 87.4496   6 
   5   1  -3 533.761 105.017   3 
   5   1  -2 3146.10 224.331   1 
   5   1  -2 2877.42 199.225   6 
   5   1  -1 58.7892 21.7349   6 
   5   1  -1 79.2363 39.0663   1 
   5   1   0 4699.75 275.692   1 
   5   1   0 4821.23 227.901   6 
   5   1   1-12.8931 15.8653   6 
   5   1   2 6196.48 328.843   2 
   5   1   3 128.653 51.4710   2 
   5   1   4 1698.37 190.401   2 
   5   1   5 2367.21 231.553   2 
   5   1   5 1547.41 96.0677   4 
   5   1   6 2928.06 275.674   2 
   5   1   6 2087.44 136.148   4 
   5   1   7 257.859 98.6952   2 
   5   1   8-39.8034 58.2031   2 
   5   1   9 880.129 209.101   2 
   5   2 -10 236.827 108.909   6 
   5   2  -9 953.612 198.655   6 
   5   2  -8 851.802 164.898   6 
   5   2  -8 539.668 87.2558   5 
   5   2  -7 155.842 76.7754   6 
   5   2  -7 121.911 54.3217   5 
   5   2  -6 1756.39 138.679   5 
   5   2  -6 2060.67 234.261   6 
   5   2  -5 4274.91 183.601   5 
   5   2  -5 5058.98 340.637   6 
   5   2  -4-13.0873 24.6536   6 
   5   2  -4-16.8998 15.3954   5 
   5   2  -4 25.1566 58.3308   1 
   5   2  -3 4489.60 184.302   5 
   5   2  -3 5033.86 316.757   3 
   5   2  -3 4675.92 311.987   1 
   5   2  -3 4453.53 279.326   6 
   5   2  -2 308.403 70.3327   6 
   5   2  -2 392.338 81.5933   1 
   5   2  -2 429.983 63.8072   5 
   5   2  -1 4000.54 263.488   1 
   5   2  -1 4089.20 241.564   6 
   5   2   0 48328.2 813.852   6 
   5   2   0 46651.8 920.738   1 
   5   2   0 47395.3 920.368   2 
   5   2   1 5276.56 307.968   2 
   5   2   2 696.706 114.576   2 
   5   2   3 298.761 77.1427   2 
   5   2   4 1937.97 208.981   2 
   5   2   4 1386.08 88.3807   4 
   5   2   5 64.6127 24.6059   4 
   5   2   5 61.7727 47.9207   2 
   5   2   6 471.064 116.063   2 
   5   2   7 55.2260 73.8767   2 
   5   2   8-69.9017 39.0685   2 
   5   2   9 2443.93 331.551   2 
   5   3  -9 72.3749 71.0552   6 
   5   3  -8-28.0504 41.9559   6 
   5   3  -8 27.4232 32.7323   5 
   5   3  -7 108.302 58.2278   6 
   5   3  -7 177.509 60.9448   5 
   5   3  -6 150.138 75.0506   6 
   5   3  -6 139.739 43.4685   5 
   5   3  -5 1245.73 117.944   5 
   5   3  -5 1582.92 218.746   1 
   5   3  -5 1220.38 174.261   6 
   5   3  -4 562.443 114.961   6 
   5   3  -4 729.071 136.164   3 
   5   3  -4 461.731 67.8358   5 
   5   3  -4 828.408 153.739   1 
   5   3  -3 1482.49 129.805   5 
   5   3  -3 1693.23 188.703   3 
   5   3  -3 1377.01 168.087   6 
   5   3  -3 1612.95 188.069   1 
   5   3  -2 161.546 63.7789   6 
   5   3  -2 271.495 60.6913   5 
   5   3  -2 231.113 81.4812   1 
   5   3  -1 3042.53 212.836   5 
   5   3  -1 2586.36 222.334   1 
   5   3   1 1596.82 179.058   2 
   5   3   2 532.924 105.428   2 
   5   3   3 135.357 65.6592   2 
   5   3   4 18.9376 18.9706   4 
   5   3   4 79.1873 39.6812   2 
   5   3   5 78.6471 38.5901   4 
   5   3   5 95.1128 67.7016   2 
   5   3   6 208.619 91.2067   2 
   5   3   7 6.45724 49.5886   2 
   5   3   8 100.176 71.5246   2 
   5   3   9 255.121 108.319   2 
   5   4  -8 74.8620 70.3107   1 
   5   4  -8 0.08906 70.4345   6 
   5   4  -7 295.522 120.037   1 
   5   4  -7 242.625 76.2412   5 
   5   4  -7 299.779 108.264   6 
   5   4  -6 142.804 57.9824   5 
   5   4  -6 46.6290 52.4486   1 
   5   4  -6 8.82221 49.6973   6 
   5   4  -5 6149.48 312.016   5 
   5   4  -5 6219.98 401.304   6 
   5   4  -4 270.908 105.692   1 
   5   4  -4 240.657 64.1720   5 
   5   4  -3 96.9801 50.9271   5 
   5   4  -3 151.271 76.9308   1 
   5   4  -2 310.487 72.6307   5 
   5   4  -2 253.372 81.6090   1 
   5   4  -1 1043.73 137.098   5 
   5   4  -1 861.487 138.711   1 
   5   4   0 6544.67 363.824   5 
   5   4   2 282.467 72.0256   2 
   5   4   3 636.707 130.088   2 
   5   4   3 585.348 91.6686   4 
   5   4   4 19544.4 723.532   2 
   5   4   4 19389.6 520.721   4 
   5   4   5 231.513 79.6872   2 
   5   4   6 2400.23 267.270   2 
   5   4   7 193.225 98.2308   2 
   5   4   8-13.6570 40.5863   2 
   5   4   9-26.8645 72.8271   2 
   5   5  -9 26.7518 46.1181   1 
   5   5  -8-16.6743 56.3911   1 
   5   5  -7 290.262 89.5883   5 
   5   5  -7 366.831 128.062   1 
   5   5  -6 304.750 110.053   1 
   5   5  -6 556.473 118.703   5 
   5   5  -5 1102.26 147.420   5 
   5   5  -5 1308.42 204.874   1 
   5   5  -4 356.907 81.6437   5 
   5   5  -4 554.070 128.799   1 
   5   5  -3 145.869 50.7993   5 
   5   5  -3 133.502 65.6684   1 
   5   5  -2 2065.69 195.479   5 
   5   5  -2 1923.54 215.533   1 
   5   5  -1 992.162 141.800   5 
   5   5   0-18.2641 34.8675   5 
   5   5   1 55.4934 36.7372   5 
   5   5   3 744.601 114.714   4 
   5   5   3 884.857 153.833   2 
   5   5   4 839.528 165.614   2 
   5   5   5 877.355 168.758   2 
   5   5   6-78.5387 50.5494   2 
   5   5   7 1238.88 201.696   2 
   5   5   8 336.004 111.574   2 
   5   6  -9 212.837 120.573   1 
   5   6  -8 1544.32 231.995   1 
   5   6  -7 873.326 195.357   1 
   5   6  -6 184.604 76.6423   5 
   5   6  -6 204.847 107.711   1 
   5   6  -5 654.637 139.780   1 
   5   6  -5 636.599 136.862   5 
   5   6  -4 467.453 98.9352   5 
   5   6  -4 745.298 178.948   1 
   5   6  -3 217.181 68.4376   5 
   5   6  -3 184.492 73.2908   1 
   5   6  -2 3630.18 283.956   5 
   5   6  -1 10474.6 485.328   5 
   5   6   0 721.254 135.236   5 
   5   6   1 221.138 91.3235   5 
   5   6   2 332.462 97.4395   5 
   5   6   5 1926.77 250.331   2 
   5   6   6 557.123 143.748   2 
   5   6   7 160.294 85.0847   2 
   5   6   8 3537.74 354.747   2 
   5   7  -8 567.407 168.657   1 
   5   7  -7 213.524 118.210   1 
   5   7  -6 547.576 153.253   1 
   5   7  -6 137.748 66.6752   5 
   5   7  -5 35.0827 47.1737   1 
   5   7  -5 75.9138 57.7236   5 
   5   7  -4 173.624 75.7136   5 
   5   7  -4 247.399 108.805   1 
   5   7  -3 341.277 106.321   5 
   5   7  -2 2348.71 251.123   5 
   5   7  -1 19061.2 704.323   5 
   5   7   0 239.273 98.1231   5 
   5   7   1 3190.47 311.484   5 
   5   7   2 294.006 98.5530   5 
   5   7   7 123.576 74.6498   2 
   5   8  -7 283.091 106.769   1 
   5   8  -6-47.0260 100.873   1 
   5   8  -5 623.514 164.147   5 
   5   8  -4 1167.03 204.696   5 
   5   8  -3 551.011 130.078   5 
   5   8  -2 1609.53 224.071   5 
   5   8  -1-24.8569 40.4423   5 
   5   8   0 104.842 85.5979   5 
   5   8   1 39.4838 37.6317   5 
   5   8   2 124.285 85.4146   5 
   5   9  -4 77.7612 52.1736   5 
   5   9  -3 153.079 85.8116   5 
   5   9  -2 86.1499 46.2893   5 
   5   9  -1 190.364 82.1188   5 
   5   9   0 2.73568 46.5512   5 
   5   9   1 225.255 107.880   5 
   6 -10  -3-0.11250 62.7825   4 
   6 -10  -2 34.0804 63.0123   6 
   6 -10  -2 246.517 111.877   4 
   6 -10  -1 447.542 135.068   4 
   6 -10   0 24.1802 52.7567   4 
   6 -10   1 547.147 153.479   4 
   6 -10   2 1067.64 206.558   4 
   6 -10   3 472.126 141.375   4 
   6 -10   4 163.097 88.4597   4 
   6  -9  -4-0.45039 46.3113   6 
   6  -9  -4-20.0756 68.4210   4 
   6  -9  -3 81.0373 76.3727   6 
   6  -9  -3 210.071 85.3739   4 
   6  -9  -2 45.9976 96.2688   6 
   6  -9  -2 84.6148 57.8729   4 
   6  -9  -1 114.826 82.7473   4 
   6  -9   0 1385.78 224.346   4 
   6  -9   1 1469.40 235.917   4 
   6  -9   2-0.46342 61.4040   4 
   6  -9   3 271.566 112.461   4 
   6  -9   4 2076.70 291.591   4 
   6  -9   5 972.395 210.422   4 
   6  -9   6-69.2941 75.2875   4 
   6  -8  -6 1447.86 233.238   6 
   6  -8  -5 2582.58 314.094   6 
   6  -8  -4 912.726 191.412   6 
   6  -8  -3 1997.11 278.745   6 
   6  -8  -3 2408.19 292.203   4 
   6  -8  -2 758.063 183.543   6 
   6  -8  -2 680.077 153.945   4 
   6  -8  -1 1160.49 194.528   4 
   6  -8   0 38.2126 31.7618   2 
   6  -8   0 24.3641 57.1244   4 
   6  -8   1 636.029 142.044   4 
   6  -8   2 1619.29 219.401   4 
   6  -8   3 2751.80 307.598   4 
   6  -8   4 3020.45 325.083   4 
   6  -8   5 125.944 81.2977   4 
   6  -8   6-91.2748 104.332   4 
   6  -7  -7 92.2754 82.7809   6 
   6  -7  -6 615.052 147.211   6 
   6  -7  -5 36.1704 41.5329   6 
   6  -7  -4 183.791 85.2903   6 
   6  -7  -3 52.5022 59.9280   6 
   6  -7  -3 47.4818 42.2020   4 
   6  -7  -2-74.5854 67.3450   6 
   6  -7  -2 125.627 66.5407   4 
   6  -7  -1-23.6405 24.0065   2 
   6  -7  -1 46.2467 48.3249   6 
   6  -7   0 2847.22 181.638   2 
   6  -7   0 3872.55 316.483   4 
   6  -7   1 1409.67 194.946   4 
   6  -7   2 387.190 103.945   4 
   6  -7   3 56.5110 41.1872   4 
   6  -7   4 455.632 109.878   4 
   6  -7   5 39.5689 39.4529   4 
   6  -7   6 470.251 136.090   4 
   6  -7   7 30.7085 46.5171   4 
   6  -6  -8 201.011 65.0415   6 
   6  -6  -7 515.193 133.166   6 
   6  -6  -6 167.389 77.1411   6 
   6  -6  -5 765.210 152.905   6 
   6  -6  -4 2180.85 259.476   6 
   6  -6  -4 1995.37 201.242   5 
   6  -6  -3 275.245 105.857   6 
   6  -6  -2 2036.67 236.679   6 
   6  -6  -2 2293.63 235.430   4 
   6  -6  -1 24885.6 833.041   6 
   6  -6  -1 25669.7 764.280   4 
   6  -6   0 462.310 73.4018   2 
   6  -6   0 1101.00 171.741   4 
   6  -6   1 8424.51 365.038   2 
   6  -6   1 10492.5 482.394   4 
   6  -6   2 130.913 65.6746   4 
   6  -6   3 1782.54 204.858   4 
   6  -6   4 116.105 68.7473   4 
   6  -6   5 30.8438 59.6004   4 
   6  -6   6 44.9383 55.9639   4 
   6  -6   7 947.726 181.274   4 
   6  -5  -9 1172.65 216.616   6 
   6  -5  -8 962.450 173.285   6 
   6  -5  -7 192.306 89.4702   6 
   6  -5  -6 205.085 95.9440   6 
   6  -5  -5 755.773 149.113   6 
   6  -5  -5 1065.15 126.882   5 
   6  -5  -4 330.632 91.5570   6 
   6  -5  -4 317.259 66.7277   5 
   6  -5  -3-70.6885 57.7271   6 
   6  -5  -2 163.641 63.8223   6 
   6  -5  -2 353.905 90.2963   4 
   6  -5  -1 256.581 78.6885   6 
   6  -5  -1 289.966 55.0416   2 
   6  -5  -1 385.846 84.1718   4 
   6  -5   0 4796.56 336.130   6 
   6  -5   0 4568.30 242.141   2 
   6  -5   0 5478.59 315.501   4 
   6  -5   1 201.541 38.7606   1 
   6  -5   1 228.425 58.6529   2 
   6  -5   1 299.830 73.6932   4 
   6  -5   2 330.591 74.8921   4 
   6  -5   3 820.721 121.285   4 
   6  -5   4 5137.26 319.585   4 
   6  -5   5 2785.94 244.119   4 
   6  -5   6 770.258 141.036   4 
   6  -5   7 118.738 58.4351   4 
   6  -4  -9 407.009 124.612   6 
   6  -4  -8-12.8570 64.0288   6 
   6  -4  -7 39.8922 42.8050   6 
   6  -4  -6 253.334 94.9102   6 
   6  -4  -6 316.938 68.4199   5 
   6  -4  -5 2942.71 272.956   6 
   6  -4  -5 3151.69 192.881   5 
   6  -4  -4 141.396 47.0249   6 
   6  -4  -3 20.1604 57.5191   6 
   6  -4  -2 87.4793 51.6859   6 
   6  -4  -1 106.278 58.5096   6 
   6  -4  -1 44.2990 28.4710   2 
   6  -4  -1 33.5975 27.8137   4 
   6  -4   0 2315.74 210.635   6 
   6  -4   0 2221.99 175.985   2 
   6  -4   0 2565.76 194.130   4 
   6  -4   0 2106.71 147.647   1 
   6  -4   1 824.647 122.320   6 
   6  -4   1 697.173 75.3746   1 
   6  -4   1 718.850 106.200   2 
   6  -4   1 909.784 109.884   4 
   6  -4   2 1725.21 179.082   6 
   6  -4   2 1572.88 175.278   2 
   6  -4   2 1788.91 162.204   4 
   6  -4   3 343.935 74.6137   4 
   6  -4   4 441.282 87.9770   4 
   6  -4   5 2404.44 205.265   4 
   6  -4   6 305.503 81.0775   4 
   6  -4   7 633.546 127.572   4 
   6  -3 -10 94.2474 74.7130   6 
   6  -3  -9 318.840 95.5115   6 
   6  -3  -8-76.8811 53.6363   6 
   6  -3  -7 54.1728 49.3114   6 
   6  -3  -6 1089.37 171.713   6 
   6  -3  -6 1253.73 103.814   5 
   6  -3  -5 46.9342 33.4368   6 
   6  -3  -5 46.9863 23.8557   5 
   6  -3  -4 52.9684 42.9924   6 
   6  -3  -3 47.6826 41.4738   6 
   6  -3  -2 932.273 135.882   6 
   6  -3  -1 3519.11 244.971   6 
   6  -3  -1 3627.03 220.660   2 
   6  -3   0 6389.00 329.108   6 
   6  -3   0 7228.15 326.791   2 
   6  -3   0 6459.43 275.902   1 
   6  -3   1 1504.50 159.477   6 
   6  -3   1 1647.11 134.131   1 
   6  -3   1 1619.96 161.324   2 
   6  -3   1 1776.45 133.458   4 
   6  -3   2 1933.25 167.632   6 
   6  -3   2 1874.79 189.309   2 
   6  -3   2 1739.45 130.295   4 
   6  -3   3 783.652 106.271   6 
   6  -3   3 706.219 121.255   2 
   6  -3   3 655.214 84.2001   4 
   6  -3   4 292.347 61.9989   4 
   6  -3   4 378.765 78.0507   6 
   6  -3   5 5910.89 275.325   6 
   6  -3   5 4592.78 250.582   4 
   6  -3   6 21.1491 31.2607   4 
   6  -2 -10 958.157 194.143   6 
   6  -2  -9 498.300 128.763   6 
   6  -2  -8 377.379 121.176   6 
   6  -2  -7 941.198 165.181   6 
   6  -2  -6 94.4237 52.4932   6 
   6  -2  -6 88.8013 22.0545   5 
   6  -2  -5 755.457 137.210   6 
   6  -2  -4 3251.29 260.047   6 
   6  -2  -3 1214.79 151.705   6 
   6  -2  -2 3086.68 225.062   6 
   6  -2  -1 9376.35 376.615   6 
   6  -2  -1 8829.68 353.577   1 
   6  -2   0 1200.21 127.297   6 
   6  -2   0 1237.91 141.927   2 
   6  -2   0 1036.58 117.937   1 
   6  -2   1 413.738 85.8394   2 
   6  -2   1 270.963 64.1338   6 
   6  -2   1 316.078 67.0392   1 
   6  -2   2 41.0354 40.5358   2 
   6  -2   2-24.5141 18.7433   6 
   6  -2   3 1758.99 131.623   6 
   6  -2   3 1602.62 183.968   2 
   6  -2   4 551.328 61.4928   6 
   6  -2   4 597.700 118.047   2 
   6  -2   4 420.116 51.1364   4 
   6  -2   5 544.779 69.4392   4 
   6  -2   6 1197.13 120.314   4 
   6  -1 -10 571.949 165.602   6 
   6  -1  -9 277.324 115.072   6 
   6  -1  -8 48.0284 53.3926   6 
   6  -1  -7 245.579 96.3841   6 
   6  -1  -6 2709.62 262.272   6 
   6  -1  -5 1451.83 178.628   6 
   6  -1  -4 3900.48 280.298   6 
   6  -1  -3 7416.07 365.840   6 
   6  -1  -2 215.216 60.4451   6 
   6  -1  -1 1701.32 162.109   6 
   6  -1  -1 1570.23 156.268   1 
   6  -1  -1 1789.72 168.208   2 
   6  -1   0 2215.33 182.421   6 
   6  -1   0 2199.27 182.703   1 
   6  -1   0 2190.55 192.217   2 
   6  -1   1 405.051 66.9227   6 
   6  -1   1 395.408 82.8991   2 
   6  -1   1 421.298 83.3839   1 
   6  -1   2 3247.25 161.356   6 
   6  -1   2 3268.08 248.855   2 
   6  -1   3 824.289 134.747   2 
   6  -1   3 706.325 62.0638   6 
   6  -1   4 2529.35 241.403   2 
   6  -1   5 818.089 50.6048   4 
   6  -1   5 859.895 53.9003   4 
   6  -1   6 413.470 61.1428   4 
   6  -1   6 702.183 148.350   2 
   6  -1   7 93.4737 64.1615   2 
   6  -1   8 113.584 97.0994   2 
   6   0 -10 472.886 135.105   6 
   6   0  -9 275.654 116.601   6 
   6   0  -8 112.418 66.5746   6 
   6   0  -7 151.935 64.5610   6 
   6   0  -7 63.0617 18.6147   5 
   6   0  -6 28003.8 834.802   6 
   6   0  -5 3679.20 281.878   6 
   6   0  -4 1284.21 160.731   6 
   6   0  -3 1269.76 153.966   6 
   6   0  -2 118.068 45.3932   6 
   6   0  -2 107.111 54.2584   1 
   6   0  -1 1714.19 153.802   6 
   6   0  -1 1905.32 183.314   2 
   6   0  -1 1750.37 170.572   1 
   6   0   0 1419.75 158.404   1 
   6   0   0 1461.57 160.973   2 
   6   0   0 1132.99 110.968   6 
   6   0   1 1716.57 175.521   1 
   6   0   1 1899.62 188.822   2 
   6   0   1 1608.19 126.068   6 
   6   0   2 407.235 55.4312   6 
   6   0   2 340.230 87.6350   2 
   6   0   3 43841.6 981.853   2 
   6   0   4 14673.6 590.961   2 
   6   0   5 7034.44 423.638   2 
   6   0   6 1026.73 173.332   2 
   6   0   7 1538.69 232.119   2 
   6   0   8 131.503 73.8995   2 
   6   1 -10 195.858 124.169   6 
   6   1  -9 105.518 43.8124   6 
   6   1  -8 291.207 117.883   6 
   6   1  -7 283.758 108.338   6 
   6   1  -6 6883.36 423.028   6 
   6   1  -5 9707.41 473.373   6 
   6   1  -4 1077.57 146.684   6 
   6   1  -3 27.7351 29.7584   6 
   6   1  -3 143.316 70.6031   1 
   6   1  -2 1223.43 157.570   1 
   6   1  -2 1159.64 135.410   6 
   6   1  -1 1141.16 142.909   1 
   6   1  -1 1191.61 131.583   6 
   6   1   0 211.846 75.7008   1 
   6   1   0 107.358 44.6481   6 
   6   1   0 168.176 59.3049   2 
   6   1   1 1965.98 199.109   2 
   6   1   1 1995.08 154.029   6 
   6   1   2 22.3210 36.1271   2 
   6   1   3 7745.24 424.233   2 
   6   1   4 5980.79 384.937   2 
   6   1   5-19.2735 39.3349   2 
   6   1   6 1507.46 212.253   2 
   6   1   7 138.757 58.1517   2 
   6   1   8 334.505 122.569   2 
   6   2  -9 784.994 186.463   6 
   6   2  -8 150.792 79.4887   6 
   6   2  -7 263.979 95.0227   6 
   6   2  -6-112.824 58.7767   6 
   6   2  -6-7.47052 13.6096   5 
   6   2  -5 17.3286 28.3439   6 
   6   2  -5-9.03770 12.7265   5 
   6   2  -4 415.814 92.7129   6 
   6   2  -4 300.014 38.2759   5 
   6   2  -3 405.430 89.7722   6 
   6   2  -3 592.183 123.708   1 
   6   2  -2 1869.01 196.719   1 
   6   2  -2 1808.40 182.400   6 
   6   2  -1 416.418 89.8317   6 
   6   2  -1 410.622 98.6843   1 
   6   2   0 1.75352 23.8377   6 
   6   2   0 77.4836 67.4881   1 
   6   2   1 93.2497 46.6778   2 
   6   2   2 2432.82 239.407   2 
   6   2   3 1317.51 180.224   2 
   6   2   4 1581.11 202.679   2 
   6   2   5 953.646 165.216   2 
   6   2   6 267.311 108.572   2 
   6   2   7 148.985 79.2689   2 
   6   2   8-53.1642 82.4005   2 
   6   3  -9 33.9316 61.5638   6 
   6   3  -8-37.3210 63.8574   6 
   6   3  -7 731.774 156.523   6 
   6   3  -7 536.489 131.756   1 
   6   3  -6 317.674 104.094   6 
   6   3  -6 129.518 34.5993   5 
   6   3  -6 184.743 102.578   1 
   6   3  -5 290.247 96.8953   6 
   6   3  -5 394.793 62.7485   5 
   6   3  -5 387.442 91.3974   1 
   6   3  -4 419.700 114.206   1 
   6   3  -4 489.345 108.540   6 
   6   3  -4 393.557 63.0258   5 
   6   3  -3 2149.29 234.547   1 
   6   3  -3 2113.33 156.217   5 
   6   3  -3 1953.79 211.337   6 
   6   3  -2 5984.63 377.081   1 
   6   3  -2 6795.15 313.463   5 
   6   3  -2 6194.06 357.529   6 
   6   3  -1 154.163 58.5192   1 
   6   3   1 1173.65 169.491   2 
   6   3   2 69.9958 28.7883   2 
   6   3   3 15.2755 39.7740   2 
   6   3   4 6263.06 421.848   2 
   6   3   5 62.4386 57.3824   2 
   6   3   6 215.563 84.9168   2 
   6   3   7 1062.78 184.852   2 
   6   3   8 1018.66 206.345   2 
   6   4  -9 65.2980 69.7848   1 
   6   4  -8 221.160 111.682   1 
   6   4  -8 111.499 81.7380   6 
   6   4  -7-57.6667 71.5148   6 
   6   4  -7 26.5750 71.0885   1 
   6   4  -6-19.1523 28.6238   5 
   6   4  -6-17.4166 86.9019   1 
   6   4  -6-26.4462 31.6850   6 
   6   4  -5 1303.56 210.733   1 
   6   4  -5 992.678 113.055   5 
   6   4  -5 985.121 169.690   6 
   6   4  -4 289.498 107.975   1 
   6   4  -4 218.551 62.5554   5 
   6   4  -3 506.778 91.0082   5 
   6   4  -3 499.790 108.309   1 
   6   4  -2 651.814 139.931   1 
   6   4  -2 748.225 118.296   5 
   6   4  -1 4321.10 291.549   5 
   6   4  -1 3140.00 282.642   1 
   6   4   2 794.719 148.750   2 
   6   4   3 189.448 93.0024   2 
   6   4   4 434.666 113.660   2 
   6   4   5 824.868 169.268   2 
   6   4   6-88.8359 72.9231   2 
   6   4   7 50.9442 68.5395   2 
   6   5  -8-36.0067 95.0502   1 
   6   5  -7 3158.64 364.399   1 
   6   5  -6 111.073 98.9610   1 
   6   5  -5 1370.01 244.390   1 
   6   5  -5 1028.49 135.887   5 
   6   5  -4-10.7814 70.0238   1 
   6   5  -4 5.48790 28.2016   5 
   6   5  -3 387.136 87.8461   5 
   6   5  -3 408.629 117.108   1 
   6   5  -2 1149.16 146.182   5 
   6   5  -2 1003.47 166.320   1 
   6   5  -1 5674.84 356.802   5 
   6   5   0 359.269 91.5164   5 
   6   5   3 80.8830 70.0704   2 
   6   5   4 231.221 86.9333   2 
   6   5   5 45.0966 72.5380   2 
   6   5   6 1834.96 264.182   2 
   6   5   7 1388.25 228.103   2 
   6   6  -7-158.398 116.810   1 
   6   6  -6 691.452 178.862   1 
   6   6  -5 55.6482 55.3519   1 
   6   6  -5 15.5877 32.6521   5 
   6   6  -4 256.180 126.589   1 
   6   6  -4 308.240 91.4808   5 
   6   6  -3 440.375 102.164   5 
   6   6  -3 278.198 114.273   1 
   6   6  -2 6878.37 393.793   5 
   6   6  -1 20618.8 718.036   5 
   6   6   0 3324.08 307.502   5 
   6   6   5 145.435 96.4175   2 
   6   6   6-14.9684 48.8620   2 
   6   7  -6 360.523 145.101   1 
   6   7  -5 46.9999 75.2582   1 
   6   7  -4 362.306 95.1655   5 
   6   7  -4 317.678 128.715   1 
   6   7  -3 342.719 92.1208   5 
   6   7  -2 2674.82 267.126   5 
   6   7  -1 2619.82 268.575   5 
   6   7   0 789.704 165.221   5 
   6   7   1 537.253 138.353   5 
   6   8  -3 94.6301 71.1448   5 
   6   8  -2 1871.33 247.118   5 
   6   8  -1 263.261 88.6418   5 
   6   8   0 212.660 88.1096   5 
   6   8   1 69.8831 73.8404   5 
   6   9  -2-5.69429 42.6261   5 
   6   9  -1 158.905 93.6769   5 
   6   9   0 61.6939 78.2863   5 
   7 -10  -2 1188.01 232.620   4 
   7 -10  -1 204.648 117.723   4 
   7 -10   0 881.432 182.330   4 
   7 -10   1 44.6144 66.8615   4 
   7 -10   2 219.400 114.407   4 
   7 -10   3 151.386 93.1011   4 
   7 -10   4 2357.53 327.360   4 
   7  -9  -3 146.396 96.1583   6 
   7  -9  -3-3.55341 63.3215   4 
   7  -9  -2 252.123 120.088   6 
   7  -9  -2 294.345 110.256   4 
   7  -9  -1 1210.06 253.310   6 
   7  -9  -1 1253.37 217.511   4 
   7  -9   0 27.1230 47.1431   4 
   7  -9   1 695.466 161.077   4 
   7  -9   2-1.16266 60.8966   4 
   7  -9   3 246.909 98.8812   4 
   7  -9   4 1341.83 238.388   4 
   7  -8  -5 104.342 67.4143   6 
   7  -8  -4-10.5235 66.3588   6 
   7  -8  -3 213.121 105.920   6 
   7  -8  -3 89.8309 55.6366   4 
   7  -8  -2 1218.83 225.306   6 
   7  -8  -2 1202.96 212.237   4 
   7  -8  -1 2671.35 326.520   6 
   7  -8  -1 3358.14 333.384   4 
   7  -8   0 299.337 122.687   6 
   7  -8   0 207.630 90.6338   4 
   7  -8   1 595.324 141.830   4 
   7  -8   2 108.721 76.6488   4 
   7  -8   2-9.29569 53.0778   2 
   7  -8   3 664.748 152.788   4 
   7  -8   4 46.8531 42.1956   4 
   7  -8   5 2005.85 277.297   4 
   7  -7  -6 113.563 81.2270   6 
   7  -7  -5 85.1012 77.8617   6 
   7  -7  -4 123.415 104.803   6 
   7  -7  -3 1132.82 202.465   6 
   7  -7  -2 860.966 181.000   6 
   7  -7  -2 737.570 159.902   4 
   7  -7  -1 13459.9 675.025   6 
   7  -7  -1 14508.5 647.657   4 
   7  -7   0 2013.12 259.789   6 
   7  -7   0 1392.20 144.379   2 
   7  -7   0 1382.20 107.221   1 
   7  -7   0 2146.29 245.690   4 
   7  -7   1 150.304 47.9868   2 
   7  -7   1 272.853 107.095   6 
   7  -7   1 307.677 95.2612   4 
   7  -7   2 57.5678 47.1272   2 
   7  -7   2 124.099 79.9531   4 
   7  -7   3 90.6255 39.7975   4 
   7  -7   4 202.398 88.4633   4 
   7  -7   5 926.355 172.529   4 
   7  -6  -7 2.87158 54.1444   6 
   7  -6  -6 173.008 100.019   6 
   7  -6  -5 216.723 78.8379   6 
   7  -6  -4 257.711 91.3479   6 
   7  -6  -3 1400.45 210.797   6 
   7  -6  -2 7066.87 455.911   6 
   7  -6  -1 1101.63 186.487   6 
   7  -6  -1 1282.71 182.682   4 
   7  -6  -1 888.292 111.215   2 
   7  -6   0 1223.61 177.154   6 
   7  -6   0 1008.55 127.596   2 
   7  -6   0 1256.04 174.186   4 
   7  -6   0 1050.60 104.942   1 
   7  -6   1 2830.56 282.704   6 
   7  -6   1 2873.28 228.665   2 
   7  -6   1 3181.83 274.665   4 
   7  -6   2 393.420 112.479   6 
   7  -6   2 321.716 89.6543   2 
   7  -6   2 490.852 106.219   4 
   7  -6   3 778.074 134.963   4 
   7  -6   4-22.5984 33.5675   4 
   7  -6   5-19.0380 53.5641   4 
   7  -5  -8 444.157 148.910   6 
   7  -5  -7-117.176 70.6268   6 
   7  -5  -6 108.579 59.1106   6 
   7  -5  -5 763.643 156.223   6 
   7  -5  -4 2736.90 276.289   6 
   7  -5  -3 86.5303 52.4230   6 
   7  -5  -2 383.772 100.926   6 
   7  -5  -1 7196.06 424.797   6 
   7  -5  -1 7101.74 321.339   2 
   7  -5   0 372.639 82.5670   2 
   7  -5   0 372.572 104.553   6 
   7  -5   0 420.399 73.6384   1 
   7  -5   0 486.795 108.561   4 
   7  -5   1 12.2745 28.5068   2 
   7  -5   1 70.0553 32.4910   1 
   7  -5   1-27.2929 43.4472   6 
   7  -5   2 175.956 67.1803   2 
   7  -5   2 217.679 64.0647   6 
   7  -5   2 312.053 87.5047   4 
   7  -5   3-78.3498 41.2106   4 
   7  -5   3-45.1699 42.2015   6 
   7  -5   4 2642.26 255.189   6 
   7  -5   4 2928.11 237.828   4 
   7  -5   5-58.3732 50.8759   4 
   7  -4  -8-60.7375 71.8850   6 
   7  -4  -7 906.429 173.105   6 
   7  -4  -6 1419.22 202.759   6 
   7  -4  -5 25.1889 32.1066   6 
   7  -4  -4 322.722 100.630   6 
   7  -4  -3-10.2467 37.3041   6 
   7  -4  -2 771.358 132.474   6 
   7  -4  -1 60.0761 52.3430   6 
   7  -4  -1 64.3994 41.2717   2 
   7  -4   0 6451.24 371.982   6 
   7  -4   0 6798.95 344.771   2 
   7  -4   0 5821.30 277.063   1 
   7  -4   1-9.09237 33.2851   2 
   7  -4   1-65.4696 48.7287   6 
   7  -4   1-61.0069 28.6492   1 
   7  -4   1-33.5463 23.5119   4 
   7  -4   2 145.595 51.5996   2 
   7  -4   2 226.352 76.4566   6 
   7  -4   2 145.105 45.8481   4 
   7  -4   3 1152.20 158.244   6 
   7  -4   3 1152.11 168.170   2 
   7  -4   3 1066.15 125.391   4 
   7  -4   4 683.528 123.748   6 
   7  -4   4 505.169 120.292   2 
   7  -4   4 728.497 100.902   4 
   7  -4   5 976.262 134.520   6 
   7  -4   5 871.316 111.601   4 
   7  -3  -9 100.028 75.4922   6 
   7  -3  -8 168.971 89.0650   6 
   7  -3  -7 119.304 87.1914   6 
   7  -3  -6 5097.11 388.516   6 
   7  -3  -5 176.831 70.4537   6 
   7  -3  -4 450.232 105.977   6 
   7  -3  -3 75.9450 59.1956   6 
   7  -3  -2 1280.89 160.586   6 
   7  -3  -1 257.249 75.3853   6 
   7  -3  -1 267.445 67.3294   2 
   7  -3  -1 291.799 67.2677   1 
   7  -3   0 12.3066 35.9244   1 
   7  -3   0 10.1904 30.3446   6 
   7  -3   0 1.77158 25.1606   2 
   7  -3   1 111.057 57.5938   2 
   7  -3   1 186.129 61.2455   6 
   7  -3   1 138.967 48.6600   1 
   7  -3   2 135.952 54.3311   2 
   7  -3   2 55.7570 42.5318   6 
   7  -3   3 1310.86 154.567   6 
   7  -3   3 1276.39 176.299   2 
   7  -3   3 861.949 83.6955   4 
   7  -3   4 356.877 69.8757   6 
   7  -3   4 270.670 47.1432   4 
   7  -3   4 293.263 88.1920   2 
   7  -3   5 462.273 124.853   2 
   7  -3   6 71.6447 66.3090   2 
   7  -2  -9 179.336 87.1212   6 
   7  -2  -8 131.045 90.6558   6 
   7  -2  -7 99.7856 34.2362   6 
   7  -2  -6 2758.89 278.547   6 
   7  -2  -5 134.197 70.3552   6 
   7  -2  -4 282.321 82.1558   6 
   7  -2  -3 368.490 92.6572   6 
   7  -2  -2 12939.9 498.935   6 
   7  -2  -1 97.0511 43.5757   6 
   7  -2  -1 169.651 68.4745   2 
   7  -2  -1 249.263 88.5135   1 
   7  -2   0 4264.49 273.004   6 
   7  -2   0 3799.33 250.857   1 
   7  -2   0 4155.82 285.224   2 
   7  -2   1 45.0803 44.4101   6 
   7  -2   1-3.42800 38.3212   2 
   7  -2   1 55.2296 41.6180   1 
   7  -2   2 862.151 104.034   6 
   7  -2   2 968.333 148.793   2 
   7  -2   3 4121.24 193.995   6 
   7  -2   3 4712.62 339.423   2 
   7  -2   4 493.506 60.4226   6 
   7  -2   4 656.687 135.960   2 
   7  -2   5 682.911 148.167   2 
   7  -2   6 2368.88 283.960   2 
   7  -2   7 142.149 71.5300   2 
   7  -1  -9 448.163 141.229   6 
   7  -1  -8 2333.21 287.719   6 
   7  -1  -7 1100.37 185.031   6 
   7  -1  -6 175.816 83.1631   6 
   7  -1  -5 49.3676 41.0076   6 
   7  -1  -4 1141.77 159.226   6 
   7  -1  -3 4583.36 305.013   6 
   7  -1  -2 87.2736 25.3448   6 
   7  -1  -2 147.299 62.0728   1 
   7  -1  -1 820.351 126.998   6 
   7  -1  -1 567.949 105.011   1 
   7  -1  -1 705.126 121.777   2 
   7  -1   0 27.0217 28.2737   6 
   7  -1   0 30.5277 26.1679   2 
   7  -1   0 47.3933 40.9456   1 
   7  -1   1 96.3765 54.8017   1 
   7  -1   1 57.2943 32.9719   6 
   7  -1   1 126.915 59.0590   2 
   7  -1   2 62.1447 27.5204   6 
   7  -1   2 129.685 66.7165   2 
   7  -1   3 24500.4 789.186   2 
   7  -1   3 23880.2 424.817   6 
   7  -1   4 1081.89 174.015   2 
   7  -1   5 154.232 91.9167   2 
   7  -1   6 324.568 98.6152   2 
   7  -1   7 331.545 115.304   2 
   7   0  -9-42.8895 56.8989   6 
   7   0  -8 618.504 148.701   6 
   7   0  -7 534.562 135.785   6 
   7   0  -6 7796.71 459.503   6 
   7   0  -5 1725.82 204.611   6 
   7   0  -4 78.0071 56.2888   6 
   7   0  -3 84.2347 46.9498   6 
   7   0  -3 78.1475 55.7636   1 
   7   0  -2 295.596 72.1807   6 
   7   0  -2 322.940 89.7001   1 
   7   0  -1 2043.03 202.231   1 
   7   0  -1 2077.90 180.836   6 
   7   0   0 1434.06 176.843   1 
   7   0   0 1477.34 176.786   2 
   7   0   0 1358.84 136.357   6 
   7   0   1 2821.71 252.307   2 
   7   0   1 2657.61 179.056   6 
   7   0   2-2.18405 24.6840   6 
   7   0   2 1.58563 34.4302   2 
   7   0   3 9442.86 499.651   2 
   7   0   4 11490.1 567.545   2 
   7   0   5 759.672 153.317   2 
   7   0   6-21.8761 60.3751   2 
   7   0   7 422.349 136.090   2 
   7   1  -9-96.2214 63.8314   6 
   7   1  -8 5366.83 441.800   6 
   7   1  -7 1666.28 236.318   6 
   7   1  -6 65.7672 59.4868   6 
   7   1  -5 754.464 139.799   6 
   7   1  -4 531.344 114.548   6 
   7   1  -4 730.091 148.367   1 
   7   1  -3 79.9449 53.0188   6 
   7   1  -3 173.779 89.3027   1 
   7   1  -2 2172.81 226.971   1 
   7   1  -2 1981.30 190.862   6 
   7   1  -1 192.301 59.8277   6 
   7   1  -1 94.1584 51.5599   1 
   7   1   0 2214.00 228.349   1 
   7   1   0 2293.98 229.230   2 
   7   1   0 2443.90 200.770   6 
   7   1   1 917.286 146.081   2 
   7   1   1 913.376 113.342   6 
   7   1   2 105.684 55.4237   2 
   7   1   3 706.147 142.149   2 
   7   1   4 3257.80 308.470   2 
   7   1   5 130.287 76.4799   2 
   7   1   6-18.4990 54.8153   2 
   7   1   7 516.463 156.161   2 
   7   2  -8 1042.68 197.637   6 
   7   2  -7 2305.87 277.743   6 
   7   2  -6 48.4153 61.9318   6 
   7   2  -6-31.7380 45.2672   1 
   7   2  -5 825.454 155.690   6 
   7   2  -5 838.488 178.700   1 
   7   2  -4 182.696 64.7014   6 
   7   2  -4 39.1185 52.0643   1 
   7   2  -3 364.512 101.939   6 
   7   2  -3 324.797 108.310   1 
   7   2  -2 11578.9 535.703   1 
   7   2  -2 11681.5 490.254   6 
   7   2  -1 1844.28 209.470   1 
   7   2  -1 2091.25 207.236   6 
   7   2   0 960.248 152.633   1 
   7   2   0 972.271 134.980   6 
   7   2   1 224.162 81.9054   2 
   7   2   2 739.384 146.913   2 
   7   2   3 336.742 100.152   2 
   7   2   4 1478.17 217.430   2 
   7   2   5 18.4489 43.1043   2 
   7   2   6 87.0813 68.2089   2 
   7   2   7 4071.87 401.138   2 
   7   3  -8 38.2472 46.2031   6 
   7   3  -8-47.9877 109.217   1 
   7   3  -7 409.916 132.356   6 
   7   3  -7 296.217 96.5071   1 
   7   3  -6 170.750 81.9783   6 
   7   3  -6 232.598 116.551   1 
   7   3  -5 124.432 72.6160   6 
   7   3  -5 233.138 118.650   1 
   7   3  -4 122.015 57.2366   6 
   7   3  -4 213.078 82.3573   1 
   7   3  -3 438.666 114.387   6 
   7   3  -3 292.733 89.5046   1 
   7   3  -2 1338.54 185.275   1 
   7   3  -2 1549.06 193.078   6 
   7   3  -1 1874.13 221.781   1 
   7   3   2 132.136 69.0113   2 
   7   3   3 158.973 72.7833   2 
   7   3   4 332.216 97.6614   2 
   7   3   5 91.4023 66.5435   2 
   7   3   6 134.603 47.2827   2 
   7   3   7 394.694 117.199   2 
   7   4  -7 885.012 182.255   1 
   7   4  -7 1054.55 204.603   6 
   7   4  -6 125.527 95.1832   1 
   7   4  -6 90.1787 84.7420   6 
   7   4  -5 120.078 79.7345   1 
   7   4  -5 5.12061 31.9952   6 
   7   4  -4 52.5612 35.2309   5 
   7   4  -4-4.72073 58.7196   1 
   7   4  -3 94.6029 52.9489   5 
   7   4  -3 99.4338 85.8248   1 
   7   4  -2 1991.98 242.245   1 
   7   4   3 470.084 117.844   2 
   7   4   4 1595.37 233.335   2 
   7   4   5 58.1216 64.8642   2 
   7   4   6-29.5410 61.7410   2 
   7   5  -7 1540.60 264.526   1 
   7   5  -6 29.9800 116.010   1 
   7   5  -5 6.78823 59.4705   1 
   7   5  -4 939.712 191.631   1 
   7   5  -3 914.297 132.606   5 
   7   5  -3 1068.92 203.331   1 
   7   5  -2-48.3184 55.8068   5 
   7   5  -2 70.6639 81.1803   1 
   7   5   4 60.4840 74.0045   2 
   7   5   5 1517.48 238.980   2 
   7   6  -5-62.8564 76.1678   1 
   7   6  -4 963.394 203.842   1 
   7   6  -3 3771.78 376.815   1 
   7   6  -2 356.545 93.1810   5 
   7   6  -1 1359.86 189.570   5 
   7   7  -1 2558.31 280.082   5 
   8 -10   0 505.664 151.374   4 
   8 -10   1 351.269 101.996   4 
   8 -10   2 165.364 70.6208   4 
   8  -9  -2 567.808 166.483   6 
   8  -9  -2 726.689 181.597   4 
   8  -9  -1 910.662 209.492   6 
   8  -9  -1 810.573 186.391   4 
   8  -9   0-114.170 108.310   6 
   8  -9   0 172.490 117.100   4 
   8  -9   1 268.833 139.653   6 
   8  -9   1-30.9329 59.5006   4 
   8  -9   2 1559.56 285.530   6 
   8  -9   2 1256.52 222.870   4 
   8  -8  -4 652.039 160.531   6 
   8  -8  -3 1128.35 216.645   6 
   8  -8  -2 225.799 87.7534   6 
   8  -8  -2-6.71678 81.7173   4 
   8  -8  -1 309.219 102.908   6 
   8  -8  -1 457.539 136.654   4 
   8  -8   0 779.700 173.917   6 
   8  -8   0 1016.09 182.098   4 
   8  -8   1 1801.93 269.939   6 
   8  -8   1 2263.52 276.740   4 
   8  -8   2 2696.66 334.712   6 
   8  -8   2 3179.41 322.228   4 
   8  -8   3 83.2317 89.1700   6 
   8  -8   3-5.51496 42.8286   2 
   8  -8   4 116.584 64.1381   2 
   8  -7  -5 106.988 88.8353   6 
   8  -7  -4 42.3834 51.1067   6 
   8  -7  -3 8.72244 46.5008   6 
   8  -7  -2 618.888 142.883   6 
   8  -7  -1 1998.15 264.509   6 
   8  -7  -1 2257.70 254.596   4 
   8  -7   0 593.070 143.546   6 
   8  -7   0 597.745 105.666   2 
   8  -7   0 753.118 145.251   4 
   8  -7   1 140.162 64.7670   2 
   8  -7   1 80.9281 55.0931   6 
   8  -7   1 105.467 67.0313   4 
   8  -7   2 88.8959 57.4909   2 
   8  -7   2 267.151 119.275   6 
   8  -7   2 152.271 69.1947   4 
   8  -7   3 159.284 94.2316   6 
   8  -7   3 34.6430 44.2703   2 
   8  -7   3 238.890 93.4389   4 
   8  -7   4 194.974 86.9353   6 
   8  -7   4 290.361 105.580   2 
   8  -6  -6 826.303 176.749   6 
   8  -6  -5 56.0473 58.5958   6 
   8  -6  -4 222.591 84.5888   6 
   8  -6  -3 10430.5 585.571   6 
   8  -6  -2-7.71073 77.0962   6 
   8  -6  -1 2842.52 296.136   6 
   8  -6  -1 2480.95 198.781   1 
   8  -6  -1 2536.20 202.461   2 
   8  -6   0 115.702 44.4750   1 
   8  -6   0 88.8367 40.1885   6 
   8  -6   0 128.437 50.9874   2 
   8  -6   0 187.343 79.4517   4 
   8  -6   1 1601.81 216.881   6 
   8  -6   1 1602.45 187.607   2 
   8  -6   1 1692.86 206.903   4 
   8  -6   2 155.742 76.2176   2 
   8  -6   2 11.1953 60.4287   6 
   8  -6   2 40.1973 35.9404   4 
   8  -6   3 24.4282 39.2464   2 
   8  -6   3 19.8170 37.0650   6 
   8  -6   3-60.8398 56.7823   4 
   8  -6   4-34.1352 63.0665   6 
   8  -6   4-129.770 84.0888   2 
   8  -6   5 778.620 179.593   2 
   8  -5  -7 335.047 119.877   6 
   8  -5  -6 226.754 91.4784   6 
   8  -5  -5-16.1153 43.6442   6 
   8  -5  -4 725.101 153.760   6 
   8  -5  -3 327.563 100.142   6 
   8  -5  -2 3644.29 313.957   6 
   8  -5  -1 135.479 77.1335   6 
   8  -5  -1 60.5276 35.8062   2 
   8  -5  -1 135.887 63.2374   1 
   8  -5   0 264.870 70.4040   1 
   8  -5   0 324.063 100.568   6 
   8  -5   0 223.585 75.7564   2 
   8  -5   1 270.107 87.7839   2 
   8  -5   1 245.017 91.0857   6 
   8  -5   1 267.116 76.6500   4 
   8  -5   2 1533.30 201.659   6 
   8  -5   2 1628.10 204.838   2 
   8  -5   2 1718.06 175.251   4 
   8  -5   3 2041.82 230.989   6 
   8  -5   3 2024.06 242.224   2 
   8  -5   3 2206.10 190.818   4 
   8  -5   4 583.086 127.179   6 
   8  -5   4 559.112 132.777   2 
   8  -5   5 27.7864 41.8288   2 
   8  -5   6-29.5546 54.0875   2 
   8  -4  -7 851.027 172.374   6 
   8  -4  -6 135.158 76.7155   6 
   8  -4  -5 68.8532 38.0527   6 
   8  -4  -4 104.769 64.4143   6 
   8  -4  -3 509.196 119.876   6 
   8  -4  -2 1001.65 161.680   6 
   8  -4  -1 402.240 99.7124   6 
   8  -4  -1 403.699 86.4370   2 
   8  -4  -1 375.374 86.9162   1 
   8  -4   0 770.933 137.842   6 
   8  -4   0 625.289 99.3510   1 
   8  -4   0 703.726 124.033   2 
   8  -4   1 170.483 60.9900   6 
   8  -4   1 102.760 61.7536   2 
   8  -4   1 35.6301 32.2111   1 
   8  -4   2 226.276 73.2620   2 
   8  -4   2 376.359 106.766   6 
   8  -4   3 2729.94 249.241   6 
   8  -4   3 2268.55 255.057   2 
   8  -4   4-10.4804 36.8152   2 
   8  -4   5 500.745 133.045   2 
   8  -4   6-15.7045 42.0472   2 
   8  -3  -8 567.494 144.603   6 
   8  -3  -7-36.3013 78.4596   6 
   8  -3  -6 154.557 67.2038   6 
   8  -3  -5 56.3443 37.3175   6 
   8  -3  -4 519.844 121.555   6 
   8  -3  -3 1276.65 182.739   6 
   8  -3  -2 1518.23 187.478   6 
   8  -3  -2 1669.10 193.839   1 
   8  -3  -1 623.490 115.182   6 
   8  -3  -1 603.912 111.978   2 
   8  -3  -1 605.230 122.424   1 
   8  -3   0 342.427 98.1115   6 
   8  -3   0 291.222 87.4760   2 
   8  -3   0 400.340 98.8197   1 
   8  -3   1 209.400 73.8072   6 
   8  -3   1 217.704 74.1209   2 
   8  -3   1 184.891 51.4399   1 
   8  -3   2 334.217 97.6774   2 
   8  -3   2 236.552 71.7607   6 
   8  -3   3 3335.86 213.533   6 
   8  -3   3 3533.11 321.093   2 
   8  -3   4 5.81876 55.4576   2 
   8  -3   5 67.1364 50.7536   2 
   8  -3   6 40.9863 68.1982   2 
   8  -2  -8 22.1704 86.7050   6 
   8  -2  -7 72.9549 59.4509   6 
   8  -2  -6 67.9678 59.3631   6 
   8  -2  -5 208.408 86.5528   6 
   8  -2  -4 937.369 160.261   6 
   8  -2  -3 3787.82 301.462   6 
   8  -2  -2 75.2181 50.5004   6 
   8  -2  -2-23.4340 68.5191   1 
   8  -2  -1 93.5365 56.5377   1 
   8  -2  -1 88.3407 48.4151   6 
   8  -2  -1 42.6121 43.5028   2 
   8  -2   0 316.592 81.1893   6 
   8  -2   0 234.606 79.3115   2 
   8  -2   0 304.146 81.2172   1 
   8  -2   1 1425.66 153.859   6 
   8  -2   1 1307.73 161.932   1 
   8  -2   1 1621.95 201.335   2 
   8  -2   2 6.55378 22.9128   6 
   8  -2   2 61.4354 57.0817   2 
   8  -2   3 516.080 74.9756   6 
   8  -2   3 615.649 135.118   2 
   8  -2   4 1885.40 246.263   2 
   8  -2   5 400.227 133.452   2 
   8  -2   6 2589.59 316.058   2 
   8  -1  -8 1102.01 213.478   6 
   8  -1  -7 461.263 134.166   6 
   8  -1  -6 953.995 167.359   6 
   8  -1  -5 1668.24 211.772   6 
   8  -1  -4 151.888 79.6972   6 
   8  -1  -3 609.957 125.217   6 
   8  -1  -3 788.021 155.364   1 
   8  -1  -2 784.642 139.733   6 
   8  -1  -2 690.285 137.118   1 
   8  -1  -1 313.887 83.2359   6 
   8  -1  -1 260.109 83.4896   1 
   8  -1   0 2091.18 182.629   6 
   8  -1   0 2248.91 221.323   1 
   8  -1   0 2415.94 239.912   2 
   8  -1   1 10.5765 23.2778   6 
   8  -1   1 32.9601 51.8480   2 
   8  -1   2 3077.36 294.909   2 
   8  -1   2 2888.27 192.675   6 
   8  -1   3 2605.45 282.791   2 
   8  -1   3 2177.71 138.751   6 
   8  -1   4 1376.33 217.131   2 
   8  -1   5 35.8167 61.4163   2 
   8  -1   6 79.3570 64.4624   2 
   8   0  -8 5447.23 462.566   6 
   8   0  -7 785.424 162.302   6 
   8   0  -6 17.9644 48.9497   6 
   8   0  -5 728.318 147.657   6 
   8   0  -4 318.758 97.5253   6 
   8   0  -4 264.527 103.362   1 
   8   0  -3 1073.52 175.627   1 
   8   0  -3 1074.08 171.622   6 
   8   0  -2 655.825 118.811   6 
   8   0  -2 534.852 123.027   1 
   8   0  -1 1040.07 166.150   1 
   8   0  -1 1110.44 144.214   6 
   8   0   0-20.9702 29.6610   6 
   8   0   0 15.4601 59.6057   1 
   8   0   0 50.9384 56.0401   2 
   8   0   1 19740.1 722.232   2 
   8   0   1 19747.7 570.766   6 
   8   0   2 12582.0 597.553   2 
   8   0   2 12105.7 393.063   6 
   8   0   3 2621.26 287.924   2 
   8   0   4 1860.67 252.384   2 
   8   0   5 1654.65 245.498   2 
   8   0   6-26.8785 66.3071   2 
   8   1  -8 3363.41 368.092   6 
   8   1  -7 2058.42 270.105   6 
   8   1  -6 367.520 116.961   6 
   8   1  -6 221.768 67.1484   1 
   8   1  -5 0.98213 57.7794   6 
   8   1  -5-55.2590 89.4937   1 
   8   1  -4 468.782 125.020   6 
   8   1  -4 497.866 123.411   1 
   8   1  -3 78.6557 34.0340   6 
   8   1  -3 206.940 80.0554   1 
   8   1  -2-31.5210 47.3368   6 
   8   1  -2 81.1809 68.9914   1 
   8   1  -1 239.364 80.4730   6 
   8   1  -1 282.944 88.5793   1 
   8   1   0 115.897 49.9772   6 
   8   1   0 85.3628 65.6291   2 
   8   1   0 71.1686 74.0037   1 
   8   1   1 5091.67 371.441   2 
   8   1   1 5296.02 303.196   6 
   8   1   2 6365.10 434.488   2 
   8   1   3 74.8702 51.0385   2 
   8   1   4 930.664 183.466   2 
   8   1   5 195.987 89.0946   2 
   8   1   6-116.832 85.4106   2 
   8   2  -7 30.6457 54.4040   6 
   8   2  -7 20.6625 66.4252   1 
   8   2  -6 437.936 126.977   6 
   8   2  -6 645.147 171.204   1 
   8   2  -5 146.343 76.0788   6 
   8   2  -5 126.426 92.0384   1 
   8   2  -4 332.336 92.9822   6 
   8   2  -4 433.461 138.455   1 
   8   2  -3-5.33263 32.7030   6 
   8   2  -3 79.8752 66.3010   1 
   8   2  -2 193.409 60.4970   6 
   8   2  -2 154.760 83.7745   1 
   8   2  -1 118.803 65.7438   6 
   8   2  -1 140.749 91.3861   1 
   8   2   0 1393.42 174.468   6 
   8   2   1 321.787 104.313   2 
   8   2   2 2284.14 266.995   2 
   8   2   3 973.240 179.781   2 
   8   2   4 213.119 89.8935   2 
   8   2   5 92.1310 68.8748   2 
   8   2   6 183.885 105.944   2 
   8   3  -7 81.9976 61.4322   6 
   8   3  -7 37.8373 72.1230   1 
   8   3  -6 155.767 107.090   6 
   8   3  -6 141.266 113.285   1 
   8   3  -5 649.181 154.143   6 
   8   3  -5 578.574 158.725   1 
   8   3  -4 2518.19 306.618   1 
   8   3  -4 2189.34 259.286   6 
   8   3  -3 194.316 80.3486   1 
   8   3  -3 73.3452 49.8205   6 
   8   3  -2 141.185 86.7497   6 
   8   3  -2 185.302 73.5675   1 
   8   3  -1 317.301 112.389   1 
   8   3   2 1777.13 249.424   2 
   8   3   3-38.6861 73.3779   2 
   8   3   4 333.464 129.513   2 
   8   3   5 570.379 163.381   2 
   8   4  -6 194.994 57.3420   1 
   8   4  -6 207.429 107.153   6 
   8   4  -5 366.652 155.271   1 
   8   4  -5 223.627 97.5405   6 
   8   4  -4 239.604 104.404   1 
   8   4  -3 1619.69 241.236   1 
   8   4  -2 34.5512 38.4340   1 
   8   4   3 607.267 152.830   2 
   8   4   4 25.0628 49.2155   2 
   8   5  -5 186.537 111.429   1 
   8   5  -4 1308.72 264.400   1 
   8   5  -3 2266.08 299.044   1 
   9  -9  -1 86.8748 63.1951   4 
   9  -9   0 50.1908 78.3610   4 
   9  -9   1 200.912 112.770   6 
   9  -9   2 996.440 237.915   6 
   9  -8  -2 203.997 102.366   6 
   9  -8  -1 166.192 100.033   6 
   9  -8   0 226.911 119.160   6 
   9  -8   0-16.6264 76.2735   4 
   9  -8   1 489.383 137.572   6 
   9  -8   2 20.5426 79.3954   6 
   9  -7  -4 267.863 113.721   6 
   9  -7  -3 3971.94 386.789   6 
   9  -7  -2 641.995 148.151   6 
   9  -7  -1 398.529 134.304   6 
   9  -7   0-236.651 87.1831   6 
   9  -7   1 93.3728 60.1142   6 
   9  -7   2 57.0665 53.2828   2 
   9  -7   2-52.8773 39.8435   6 
   9  -7   3 573.470 138.749   2 
   9  -7   4 17.4354 46.9564   2 
   9  -7   5 308.256 120.270   2 
   9  -6  -5 616.008 166.750   6 
   9  -6  -4 2196.95 284.935   6 
   9  -6  -3 1465.76 228.773   6 
   9  -6  -2 630.729 133.439   6 
   9  -6  -1 2868.26 305.779   6 
   9  -6  -1 2583.21 214.093   1 
   9  -6   0 558.135 139.376   6 
   9  -6   0 512.527 111.760   2 
   9  -6   1-31.4658 64.2633   6 
   9  -6   1 84.5760 50.2070   2 
   9  -6   2 45.6609 67.0802   2 
   9  -6   2-1.55219 52.8632   6 
   9  -6   3 128.489 82.7139   2 
   9  -6   4 274.376 111.603   2 
   9  -6   5 1011.25 205.475   2 
   9  -5  -6 879.829 174.627   6 
   9  -5  -5 449.938 121.125   6 
   9  -5  -4-28.4430 55.6842   6 
   9  -5  -3 3428.49 328.615   6 
   9  -5  -2 40.5571 39.7903   6 
   9  -5  -2-60.1772 56.5188   1 
   9  -5  -1 38.2821 62.7239   6 
   9  -5  -1 48.6595 42.9311   2 
   9  -5  -1-32.5432 34.5714   1 
   9  -5   0 0.99858 36.7813   6 
   9  -5   0-80.7912 67.0984   2 
   9  -5   0 14.1358 47.7467   1 
   9  -5   1 59.4902 63.4598   6 
   9  -5   1-19.7741 41.9017   2 
   9  -5   2 1984.26 240.685   6 
   9  -5   2 1958.19 250.337   2 
   9  -5   3 221.492 98.2403   2 
   9  -5   4-31.2676 42.0091   2 
   9  -5   5 182.740 95.5580   2 
   9  -4  -6 91.8600 97.6500   6 
   9  -4  -5 47.6628 81.2106   6 
   9  -4  -4 89.2486 54.8702   6 
   9  -4  -3 125.681 80.1963   6 
   9  -4  -2 3005.16 288.630   6 
   9  -4  -2 2967.79 268.175   1 
   9  -4  -1 120.512 58.1234   1 
   9  -4  -1 147.509 92.2276   6 
   9  -4  -1 137.288 66.8381   2 
   9  -4   0 68.1059 50.9246   6 
   9  -4   0 33.0644 50.5692   2 
   9  -4   0 33.0075 48.5353   1 
   9  -4   1 1683.54 218.771   6 
   9  -4   1 1405.90 200.036   2 
   9  -4   2 326.569 101.186   6 
   9  -4   2 260.532 89.5606   2 
   9  -4   3 636.412 145.190   2 
   9  -4   4 640.617 154.830   2 
   9  -4   5 166.763 96.6018   2 
   9  -3  -7 183.708 85.1352   6 
   9  -3  -6 31.5207 71.3792   6 
   9  -3  -5 30.3510 35.8843   6 
   9  -3  -4 251.955 93.2584   6 
   9  -3  -3-41.9778 52.1655   6 
   9  -3  -3 76.6214 51.4415   1 
   9  -3  -2 101.517 57.5208   6 
   9  -3  -2 203.690 69.6142   1 
   9  -3  -1 52.8611 41.6779   6 
   9  -3  -1 15.0597 46.9234   1 
   9  -3  -1 36.8884 48.5159   2 
   9  -3   0-24.8322 45.4503   6 
   9  -3   0 28.1798 32.5529   1 
   9  -3   0-57.5062 36.9627   2 
   9  -3   1 1031.57 147.575   6 
   9  -3   1 1324.97 197.326   2 
   9  -3   2 447.543 96.9457   6 
   9  -3   2 479.165 122.316   2 
   9  -3   3 34.8414 60.7944   2 
   9  -3   4-8.86810 52.2570   2 
   9  -3   5-75.6506 63.4861   2 
   9  -2  -7 123.782 63.5057   6 
   9  -2  -6 74.7401 49.3827   6 
   9  -2  -5 63.4221 45.6500   6 
   9  -2  -4 3075.18 294.279   6 
   9  -2  -4 4048.09 388.234   1 
   9  -2  -3 338.832 105.295   6 
   9  -2  -3 372.176 83.8229   1 
   9  -2  -2 675.844 137.293   1 
   9  -2  -2 643.040 132.992   6 
   9  -2  -1 49.5711 61.5531   6 
   9  -2  -1-56.6209 64.1689   1 
   9  -2   0 576.485 112.885   6 
   9  -2   0 622.688 132.241   2 
   9  -2   0 502.396 107.961   1 
   9  -2   1 3873.94 259.916   6 
   9  -2   1 4461.64 365.641   2 
   9  -2   2 747.756 106.483   6 
   9  -2   2 595.978 138.475   2 
   9  -2   3 133.676 78.3983   2 
   9  -2   4 1256.05 216.560   2 
   9  -2   5 343.181 114.097   2 
   9  -1  -7-62.0179 61.8210   6 
   9  -1  -6 260.449 103.310   6 
   9  -1  -5 3109.17 368.768   1 
   9  -1  -5 2340.58 269.385   6 
   9  -1  -4 336.849 112.615   6 
   9  -1  -4 277.221 115.286   1 
   9  -1  -3 320.479 106.360   6 
   9  -1  -3 309.822 113.223   1 
   9  -1  -2 143.887 51.5881   6 
   9  -1  -2 54.9154 40.4864   1 
   9  -1  -1 28.4708 33.1708   6 
   9  -1  -1 22.1719 41.2071   1 
   9  -1   0 342.510 77.7086   6 
   9  -1   0 379.199 108.482   1 
   9  -1   0 477.832 122.668   2 
   9  -1   1 9446.02 530.854   2 
   9  -1   1 8021.75 371.291   6 
   9  -1   2 691.513 158.249   2 
   9  -1   3 161.324 102.860   2 
   9  -1   4 360.661 118.894   2 
   9  -1   5 553.597 161.353   2 
   9   0  -7 1208.37 207.124   6 
   9   0  -6 174.418 65.6854   6 
   9   0  -6 369.887 140.294   1 
   9   0  -5 74.9598 64.5076   6 
   9   0  -5 5.54024 82.7242   1 
   9   0  -4-20.4609 60.7455   6 
   9   0  -4 2.24306 46.6976   1 
   9   0  -3 247.788 92.3659   6 
   9   0  -3 476.103 127.687   1 
   9   0  -2 63.3400 43.0116   6 
   9   0  -2 121.550 80.4658   1 
   9   0  -1 1113.75 174.270   1 
   9   0  -1 1136.94 151.517   6 
   9   0   0 73.5995 51.9093   6 
   9   0   0-4.32174 46.0601   1 
   9   0   0 125.780 73.1868   2 
   9   0   1 7336.42 476.395   2 
   9   0   1 8078.01 401.196   6 
   9   0   2 4333.55 379.147   2 
   9   0   3 499.680 136.919   2 
   9   0   4 103.826 91.6100   2 
   9   0   5 47.2413 62.7049   2 
   9   1  -7 657.597 154.339   6 
   9   1  -6 254.137 107.421   6 
   9   1  -6 218.813 107.721   1 
   9   1  -5 300.705 116.612   6 
   9   1  -5 228.661 91.3036   1 
   9   1  -4 1152.62 219.649   1 
   9   1  -4 889.711 169.407   6 
   9   1  -3 218.809 79.3253   6 
   9   1  -3 195.997 91.0774   1 
   9   1  -2 756.991 148.500   1 
   9   1  -2 813.439 145.145   6 
   9   1  -1 947.218 170.192   1 
   9   1  -1 1211.93 175.198   6 
   9   1   0 413.952 106.514   6 
   9   1   1 243.831 92.3715   2 
   9   1   1 289.240 84.5702   6 
   9   1   2 3057.52 323.792   2 
   9   1   3 47.5041 57.8184   2 
   9   1   4 168.516 84.5059   2 
   9   2  -6 115.581 83.6782   6 
   9   2  -6-51.6688 98.7448   1 
   9   2  -5 21.3921 38.2575   6 
   9   2  -5 73.0487 54.0756   1 
   9   2  -4 3133.45 359.118   1 
   9   2  -4 2458.45 272.716   6 
   9   2  -3 326.732 100.967   6 
   9   2  -3 394.542 133.094   1 
   9   2  -2 641.920 139.072   6 
   9   2  -2 518.178 140.894   1 
   9   2  -1 62.0206 50.1946   6 
   9   2  -1 167.076 79.0780   1 
   9   2   2 891.713 188.071   2 
   9   2   3 74.9518 65.3345   2 
   9   2   4 313.160 116.014   2 
   9   3  -6 168.628 87.6718   6 
   9   3  -5 202.113 88.4693   6 
   9   3  -5 108.484 118.766   1 
   9   3  -4 335.856 106.586   6 
   9   3  -4 334.049 143.962   1 
   9   3  -3 829.424 168.193   6 
   9   3  -3 914.028 192.270   1 
   9   3  -2 50.9263 74.4243   1 
   9   3   2 124.658 77.1301   2 
   9   3   3 196.529 94.7143   2 
   9   4  -3 164.088 99.2874   1 
   9   4  -2-2.78420 68.3118   1 
  10  -8   0 2017.27 294.661   6 
  10  -8   1-226.055 118.770   6 
  10  -7  -2 261.403 118.428   6 
  10  -7  -1-125.675 96.6974   6 
  10  -7   0-8.73126 47.1378   6 
  10  -7   1 337.472 118.264   6 
  10  -6  -4 32.6297 52.3740   6 
  10  -6  -3 274.457 74.6130   6 
  10  -6  -3 357.317 102.232   1 
  10  -6  -2 170.096 80.8288   6 
  10  -6  -1 665.805 146.437   6 
  10  -6   0 219.199 92.4872   6 
  10  -6   1 221.988 116.884   6 
  10  -6   1 237.223 96.7185   2 
  10  -6   2 9.78073 50.2734   2 
  10  -6   3 679.086 170.556   2 
  10  -6   4 880.305 203.596   2 
  10  -5  -4 2191.70 289.012   6 
  10  -5  -3 82.2574 56.0112   6 
  10  -5  -3 171.065 73.8444   1 
  10  -5  -2 91.3454 64.1355   6 
  10  -5  -2 105.421 96.1930   1 
  10  -5  -1 116.646 42.4081   6 
  10  -5  -1 176.262 80.6565   1 
  10  -5   0 188.149 69.8179   6 
  10  -5   0 307.931 101.298   2 
  10  -5   1 991.482 190.505   6 
  10  -5   1 1302.68 208.404   2 
  10  -5   2 134.798 80.8688   2 
  10  -5   3-208.210 104.899   2 
  10  -5   4-3.49360 62.1972   2 
  10  -4  -5 622.533 167.871   6 
  10  -4  -4 334.183 91.1690   6 
  10  -4  -4 322.897 83.0791   1 
  10  -4  -3 295.856 92.9064   6 
  10  -4  -3 197.028 73.9305   1 
  10  -4  -2 178.741 82.0896   6 
  10  -4  -2 191.335 60.4911   1 
  10  -4  -1 33.8284 45.1284   6 
  10  -4  -1 41.0237 76.2781   1 
  10  -4   0 341.534 120.882   6 
  10  -4   0 302.293 102.439   2 
  10  -4   0 164.343 77.2435   1 
  10  -4   1 1338.87 192.044   6 
  10  -4   1 1257.54 200.736   2 
  10  -4   2 36.5423 57.3519   2 
  10  -4   3 575.926 154.808   2 
  10  -4   4 216.056 126.663   2 
  10  -3  -5 653.931 161.208   6 
  10  -3  -4 290.139 89.9271   6 
  10  -3  -4 385.947 139.621   1 
  10  -3  -3 94.1026 78.5080   6 
  10  -3  -3 39.0549 65.7108   1 
  10  -3  -2 31.5155 60.8454   6 
  10  -3  -2-57.8648 60.7284   1 
  10  -3  -1-22.7549 64.9273   6 
  10  -3  -1 37.2056 40.3539   1 
  10  -3   0 103.739 56.8930   6 
  10  -3   0 44.9818 38.6022   1 
  10  -3   0 69.5742 43.8727   2 
  10  -3   1 1585.09 185.312   6 
  10  -3   1 1953.01 259.166   2 
  10  -3   2-10.3862 62.3221   2 
  10  -3   3 79.0658 77.5042   2 
  10  -3   4 93.0002 95.3429   2 
  10  -2  -6 449.929 135.664   6 
  10  -2  -5 1294.33 209.400   6 
  10  -2  -5 1576.56 267.971   1 
  10  -2  -4 175.932 88.9634   6 
  10  -2  -4 135.725 86.4207   1 
  10  -2  -3 128.894 78.9387   6 
  10  -2  -3 41.2110 63.3082   1 
  10  -2  -2 598.146 146.916   6 
  10  -2  -2 373.189 118.391   1 
  10  -2  -1 583.130 139.631   1 
  10  -2  -1 738.670 152.306   6 
  10  -2   0 139.709 64.7330   6 
  10  -2   0 232.690 96.6724   2 
  10  -2   0 181.070 82.2281   1 
  10  -2   1 36.0682 50.9149   2 
  10  -2   2 900.316 187.679   2 
  10  -2   3 356.319 124.491   2 
  10  -2   4 3060.07 366.353   2 
  10  -1  -6 35.9454 39.0424   6 
  10  -1  -6 231.144 118.738   1 
  10  -1  -5 334.376 113.657   6 
  10  -1  -5 405.415 145.014   1 
  10  -1  -4 235.335 101.462   6 
  10  -1  -4 303.363 124.208   1 
  10  -1  -3 151.826 59.8002   6 
  10  -1  -3 115.307 111.877   1 
  10  -1  -2 778.931 151.284   6 
  10  -1  -2 820.805 178.322   1 
  10  -1  -1 179.968 81.8836   6 
  10  -1  -1 80.4601 61.6261   1 
  10  -1   0 2109.11 248.168   1 
  10  -1   0 2635.03 296.835   2 
  10  -1   0 2309.95 225.536   6 
  10  -1   1 867.252 178.304   2 
  10  -1   2 1581.25 244.629   2 
  10  -1   3 46.2988 60.3266   2 
  10   0  -6 61.4108 65.1208   6 
  10   0  -5 571.799 138.555   6 
  10   0  -5 378.890 138.998   1 
  10   0  -4 240.012 97.1693   6 
  10   0  -4 147.750 91.3097   1 
  10   0  -3 483.117 128.803   6 
  10   0  -3 682.391 172.716   1 
  10   0  -2 16.8755 78.9048   1 
  10   0  -2-19.0967 50.5357   6 
  10   0  -1 4917.31 393.030   1 
  10   0  -1 5359.02 363.850   6 
  10   0   0 7176.86 424.858   6 
  10   0   1 407.080 126.108   2 
  10   0   2 1803.92 264.356   2 
  10   0   3 1156.66 226.729   2 
  10   1  -5 46.4541 71.7104   6 
  10   1  -4-21.7867 61.1541   6 
  10   1  -4-117.272 124.368   1 
  10   1  -3 62.3027 55.2232   6 
  10   1  -3 93.5856 80.3282   1 
  10   1  -2-13.4020 43.9131   6 
  10   1  -2 138.436 67.1482   1 
  10   1  -1 3542.14 338.246   1 
  10   1  -1 3966.25 339.274   6 
  10   1   1 7.48543 67.9613   2 
  10   1   2 163.542 97.9806   2 
  10   2  -5 334.356 133.016   6 
  10   2  -4 293.650 105.497   6 
  10   2  -3 276.853 98.7567   6 
  10   2  -3 109.584 58.9367   1 
  10   2  -2 292.467 90.5305   6 
  10   2  -2 396.339 128.020   1 
  10   2  -1 53.5023 99.1961   1 
  10   2  -1 60.3790 56.8283   6 
  10   3  -4 223.167 107.411   6 
  10   3  -3 163.065 81.1375   6 
  11  -6  -2 115.564 46.8164   6 
  11  -6  -1 75.1529 76.2974   6 
  11  -5  -5 1109.53 222.258   1 
  11  -5  -4 32.5943 93.6235   1 
  11  -5  -3-69.0420 69.5535   6 
  11  -5  -3-22.3570 93.9946   1 
  11  -5  -2 186.506 99.4865   6 
  11  -5  -1 90.5486 81.7576   6 
  11  -5   1 298.290 111.360   2 
  11  -5   2-201.634 109.800   2 
  11  -4  -5 82.9556 74.8763   1 
  11  -4  -4 995.012 204.059   6 
  11  -4  -4 1145.32 237.796   1 
  11  -4  -3-160.713 105.426   6 
  11  -4  -3 393.423 161.583   1 
  11  -4  -2-85.8028 89.1634   6 
  11  -4  -2 171.949 117.096   1 
  11  -4  -1 740.216 179.334   6 
  11  -4  -1 633.254 141.689   1 
  11  -4   0 12.7934 47.0970   2 
  11  -4   1 513.755 153.097   2 
  11  -4   2 449.726 155.481   2 
  11  -3  -4-27.2390 64.8371   6 
  11  -3  -4 240.602 140.145   1 
  11  -3  -3 32.0386 48.4341   6 
  11  -3  -3-177.734 82.9746   1 
  11  -3  -2-191.378 116.002   6 
  11  -3  -2 143.963 86.5781   1 
  11  -3  -1 1129.11 209.832   6 
  11  -3  -1 592.258 136.559   1 
  11  -3   0 625.621 159.336   2 
  11  -3   1 53.9858 75.7082   2 
  11  -3   2 224.231 117.945   2 
  11  -2  -4-25.8036 108.544   1 
  11  -2  -4-14.7026 58.3443   6 
  11  -2  -3-39.1779 52.7957   6 
  11  -2  -3 148.739 67.2014   1 
  11  -2  -2 150.590 69.8667   6 
  11  -2  -2 266.602 111.387   1 
  11  -2  -1 2052.90 257.646   1 
  11  -2  -1 2047.25 240.015   6 
  11  -2   1 183.214 95.6191   2 
  11  -2   2 516.573 168.773   2 
  11  -1  -4 370.669 121.680   6 
  11  -1  -4 356.199 146.418   1 
  11  -1  -3 154.325 97.5346   6 
  11  -1  -3 80.5510 64.9659   1 
  11  -1  -2 558.464 138.285   6 
  11  -1  -2 672.471 164.705   1 
  11  -1  -1 2428.15 283.581   1 
  11  -1   1 202.891 106.269   2 
  11   0  -4 27.8250 83.5520   6 
  11   0  -3 182.487 90.8967   6 
  11   0  -3 332.286 110.220   1 
  11   0  -2 61.4294 78.1201   6 
  11   0  -2 89.4959 51.3831   1 
  11   0  -1 3156.32 341.236   1 
  11   1  -4 185.817 99.2452   6 
  11   1  -3 565.580 146.357   6 
  11   2  -3 79.2508 89.5941   6 
  12  -3  -2-135.288 103.266   1 
  12  -2  -3 480.608 171.242   6 
  12  -2  -2 160.857 103.897   1 
  12  -2  -1-51.1915 91.8157   1 
   0   0   0    0.00    0.00   0 
TITL exp_1139 in P1 
REM P1 (#1 in standard setting) 
CELL 0.71073   8.778161   8.808413   9.031328  90.5440  95.5881 100.0663 
ZERR    2.00   0.000519   0.000620   0.000974   0.0071   0.0065   0.0054 
LATT -1 
SFAC C H N O F 
UNIT 28.00 32.00 2.00 8.00 2.00 
TREF 
HKLF 4 
END 
;
_shelx_hkl_checksum              37058
#END Tags that were not found in dictionaries
loop_
_space_group_symop_operation_xyz
'x, y, z'
'-x, -y, -z'
loop_
_atom_site_label
_atom_site_type_symbol
_atom_site_fract_x
_atom_site_fract_y
_atom_site_fract_z
_atom_site_U_iso_or_equiv
_atom_site_adp_type
_atom_site_occupancy
_atom_site_site_symmetry_order
_atom_site_calc_flag
_atom_site_refinement_flags_posn
_atom_site_refinement_flags_adp
_atom_site_refinement_flags_occupancy
_atom_site_disorder_assembly
_atom_site_disorder_group
C8 C 0.59422(19) 0.12752(19) 0.3470(2) 0.0265(4) Uani 1 1 d . . . . .
H8A H 0.5343 0.1820 0.2837 0.032 Uiso 1 1 calc R U . . .
C9 C 0.69908(18) 0.21229(18) 0.4546(2) 0.0250(4) Uani 1 1 d . . . . .
C11 C 0.79913(19) 0.13419(18) 0.5529(2) 0.0259(4) Uani 1 1 d . . . . .
C13 C 1.0097(2) 0.15003(19) 0.7417(2) 0.0293(4) Uani 1 1 d . . . . .
H13B H 1.0762 0.0997 0.6849 0.035 Uiso 1 1 calc R U . . .
H13A H 0.9492 0.0728 0.7987 0.035 Uiso 1 1 calc R U . . .
C15 C 1.1067(2) 0.2751(2) 0.8447(2) 0.0325(4) Uani 1 1 d . . . . .
H15C H 1.1765 0.2301 0.9127 0.039 Uiso 1 1 calc R U . . .
H15B H 1.0394 0.3239 0.9000 0.039 Uiso 1 1 calc R U . . .
H15A H 1.1657 0.3506 0.7867 0.039 Uiso 1 1 calc R U . . .
C10 C 0.69719(19) 0.37999(18) 0.4529(2) 0.0250(4) Uani 1 1 d . . . . .
C12 C 0.7833(2) 0.62232(18) 0.5799(2) 0.0305(4) Uani 1 1 d . . . . .
H12B H 0.6805 0.6412 0.5967 0.037 Uiso 1 1 calc R U . . .
H12A H 0.8135 0.6724 0.4892 0.037 Uiso 1 1 calc R U . . .
C14 C 0.8985(2) 0.6819(2) 0.7096(2) 0.0386(5) Uani 1 1 d . . . . .
H14C H 0.9995 0.6623 0.6912 0.046 Uiso 1 1 calc R U . . .
H14B H 0.8674 0.6307 0.7982 0.046 Uiso 1 1 calc R U . . .
H14A H 0.9028 0.7911 0.7226 0.046 Uiso 1 1 calc R U . . .
C1 C 0.47045(18) -0.11297(19) 0.2133(2) 0.0251(4) Uani 1 1 d . . . . .
C6 C 0.3676(2) -0.0499(2) 0.1165(2) 0.0279(4) Uani 1 1 d . . . . .
H6A H 0.3606 0.0541 0.1241 0.033 Uiso 1 1 calc R U . . .
C5 C 0.2753(2) -0.1461(2) 0.0078(2) 0.0292(4) Uani 1 1 d . . . . .
H5A H 0.2056 -0.1046 -0.0576 0.035 Uiso 0.123(3) 1 calc R U P A 1
C4 C 0.2825(2) -0.3009(2) -0.0076(2) 0.0322(5) Uani 1 1 d . . . . .
H4A H 0.2207 -0.3626 -0.0828 0.039 Uiso 1 1 calc R U . . .
C3 C 0.3843(2) -0.3607(2) 0.0923(2) 0.0331(5) Uani 1 1 d . . . . .
H3A H 0.3903 -0.4650 0.0849 0.040 Uiso 0.877(3) 1 calc R U P A 2
C2 C 0.4774(2) -0.2698(2) 0.2028(2) 0.0286(4) Uani 1 1 d . . . . .
H2A H 0.5444 -0.3126 0.2699 0.034 Uiso 1 1 calc R U . . .
N7 N 0.57150(16) -0.02444(15) 0.32589(17) 0.0269(4) Uani 1 1 d . . . . .
H7A H 0.6241 -0.0744 0.3876 0.032 Uiso 1 1 calc R U . . .
O4 O 0.90846(13) 0.22505(13) 0.64348(14) 0.0288(3) Uani 1 1 d . . . . .
O2 O 0.78701(14) -0.00788(13) 0.55394(14) 0.0318(3) Uani 1 1 d . . . . .
O3 O 0.78372(13) 0.45828(12) 0.56838(14) 0.0295(3) Uani 1 1 d . . . . .
O1 O 0.62232(15) 0.44135(13) 0.35874(15) 0.0364(4) Uani 1 1 d . . . . .
F2 F 0.3687(10) -0.5122(10) 0.0880(10) 0.039(3) Uani 0.123(3) 1 d . . P A 1
F1 F 0.17518(14) -0.08524(13) -0.08444(14) 0.0384(5) Uani 0.877(3) 1 d . . P A
2
loop_
_atom_site_aniso_label
_atom_site_aniso_U_11
_atom_site_aniso_U_22
_atom_site_aniso_U_33
_atom_site_aniso_U_23
_atom_site_aniso_U_13
_atom_site_aniso_U_12
C8 0.0259(9) 0.0235(9) 0.0292(10) -0.0020(7) 0.0059(8) 0.0005(7)
C9 0.0235(8) 0.0221(9) 0.0271(10) -0.0031(7) 0.0023(7) -0.0014(6)
C11 0.0243(8) 0.0204(9) 0.0308(10) -0.0076(7) 0.0053(8) -0.0032(7)
C13 0.0284(9) 0.0229(9) 0.0356(11) -0.0057(7) 0.0013(8) 0.0031(7)
C15 0.0296(9) 0.0289(9) 0.0370(11) -0.0062(8) -0.0012(8) 0.0027(7)
C10 0.0231(8) 0.0222(9) 0.0279(10) -0.0018(7) 0.0018(8) -0.0011(7)
C12 0.0346(9) 0.0168(9) 0.0381(11) -0.0036(7) -0.0012(9) 0.0019(7)
C14 0.0455(11) 0.0228(9) 0.0419(13) -0.0078(8) -0.0078(10) -0.0019(8)
C1 0.0221(8) 0.0252(9) 0.0257(10) -0.0059(7) 0.0041(7) -0.0031(6)
C6 0.0287(9) 0.0204(8) 0.0322(11) -0.0064(7) 0.0032(8) -0.0018(7)
C5 0.0261(9) 0.0298(9) 0.0290(11) -0.0041(8) 0.0012(8) -0.0013(7)
C4 0.0295(9) 0.0296(10) 0.0322(11) -0.0131(8) 0.0008(8) -0.0070(7)
C3 0.0337(10) 0.0237(9) 0.0398(12) -0.0092(8) 0.0046(9) -0.0009(7)
C2 0.0261(9) 0.0275(9) 0.0317(11) -0.0022(8) 0.0016(8) 0.0041(7)
N7 0.0266(8) 0.0219(8) 0.0296(9) -0.0054(6) -0.0022(7) -0.0002(6)
O4 0.0269(6) 0.0210(6) 0.0355(8) -0.0057(5) -0.0031(6) -0.0004(5)
O2 0.0352(7) 0.0196(6) 0.0381(8) -0.0063(5) -0.0022(6) 0.0017(5)
O3 0.0336(7) 0.0175(6) 0.0334(8) -0.0069(5) -0.0064(6) -0.0012(5)
O1 0.0414(8) 0.0250(7) 0.0383(9) -0.0065(6) -0.0110(7) 0.0018(6)
F2 0.038(5) 0.039(6) 0.039(6) -0.014(4) -0.010(4) 0.010(4)
F1 0.0391(7) 0.0324(7) 0.0382(8) -0.0051(5) -0.0124(6) 0.0007(5)
loop_
_atom_type_symbol
_atom_type_description
_atom_type_scat_dispersion_real
_atom_type_scat_dispersion_imag
_atom_type_scat_source
C C 0.0033 0.0016 'International Tables Vol C Tables 4.2.6.8 and 6.1.1.4'
H H 0.0000 0.0000 'International Tables Vol C Tables 4.2.6.8 and 6.1.1.4'
N N 0.0061 0.0033 'International Tables Vol C Tables 4.2.6.8 and 6.1.1.4'
O O 0.0106 0.0060 'International Tables Vol C Tables 4.2.6.8 and 6.1.1.4'
F F 0.0171 0.0103 'International Tables Vol C Tables 4.2.6.8 and 6.1.1.4'
loop_
_geom_angle_atom_site_label_1
_geom_angle_atom_site_label_2
_geom_angle_atom_site_label_3
_geom_angle
N7 C8 C9 125.84(18)
N7 C8 H8A 117.1
C9 C8 H8A 117.1
C8 C9 C11 119.49(15)
C8 C9 C10 113.77(16)
C11 C9 C10 126.73(15)
O2 C11 O4 120.99(16)
O2 C11 C9 122.91(15)
O4 C11 C9 116.10(14)
O4 C13 C15 106.53(14)
O4 C13 H13B 110.4
C15 C13 H13B 110.4
O4 C13 H13A 110.4
C15 C13 H13A 110.4
H13B C13 H13A 108.6
C13 C15 H15C 109.5
C13 C15 H15B 109.5
H15C C15 H15B 109.5
C13 C15 H15A 109.5
H15C C15 H15A 109.5
H15B C15 H15A 109.5
O1 C10 O3 122.64(15)
O1 C10 C9 123.99(15)
O3 C10 C9 113.35(16)
O3 C12 C14 105.95(15)
O3 C12 H12B 110.5
C14 C12 H12B 110.5
O3 C12 H12A 110.5
C14 C12 H12A 110.5
H12B C12 H12A 108.7
C12 C14 H14C 109.5
C12 C14 H14B 109.5
H14C C14 H14B 109.5
C12 C14 H14A 109.5
H14C C14 H14A 109.5
H14B C14 H14A 109.5
C6 C1 C2 120.38(15)
C6 C1 N7 122.54(15)
C2 C1 N7 117.08(16)
C1 C6 C5 118.10(16)
C1 C6 H6A 120.9
C5 C6 H6A 120.9
F1 C5 C4 119.28(16)
F1 C5 C6 117.94(16)
C4 C5 C6 122.78(18)
C4 C5 H5A 118.6
C6 C5 H5A 118.6
C3 C4 C5 117.65(16)
C3 C4 H4A 121.2
C5 C4 H4A 121.2
F2 C3 C2 122.7(4)
F2 C3 C4 115.0(4)
C2 C3 C4 121.55(17)
C2 C3 H3A 119.2
C4 C3 H3A 119.2
C3 C2 C1 119.50(18)
C3 C2 H2A 120.3
C1 C2 H2A 120.3
C8 N7 C1 127.02(17)
C8 N7 H7A 116.5
C1 N7 H7A 116.5
C11 O4 C13 117.09(13)
C10 O3 C12 117.32(14)
loop_
_geom_bond_atom_site_label_1
_geom_bond_atom_site_label_2
_geom_bond_distance
C8 N7 1.325(2)
C8 C9 1.383(2)
C8 H8A 0.9300
C9 C11 1.447(3)
C9 C10 1.478(2)
C11 O2 1.236(2)
C11 O4 1.338(2)
C13 O4 1.438(2)
C13 C15 1.515(2)
C13 H13B 0.9700
C13 H13A 0.9700
C15 H15C 0.9600
C15 H15B 0.9600
C15 H15A 0.9600
C10 O1 1.210(2)
C10 O3 1.334(2)
C12 O3 1.4461(19)
C12 C14 1.494(3)
C12 H12B 0.9700
C12 H12A 0.9700
C14 H14C 0.9600
C14 H14B 0.9600
C14 H14A 0.9600
C1 C6 1.382(3)
C1 C2 1.394(2)
C1 N7 1.410(2)
C6 C5 1.385(2)
C6 H6A 0.9300
C5 F1 1.333(2)
C5 C4 1.380(2)
C5 H5A 0.9300
C4 C3 1.379(3)
C4 H4A 0.9300
C3 F2 1.315(9)
C3 C2 1.376(3)
C3 H3A 0.9300
C2 H2A 0.9300
N7 H7A 0.8600
loop_
_geom_hbond_atom_site_label_D
_geom_hbond_atom_site_label_H
_geom_hbond_atom_site_label_A
_geom_hbond_distance_DH
_geom_hbond_distance_HA
_geom_hbond_distance_DA
_geom_hbond_angle_DHA
_geom_hbond_site_symmetry_A
C14 H14B F2 0.96 2.47 3.272(10) 141.0 2_656
C14 H14A O2 0.96 2.62 3.332(2) 131.7 1_565
C2 H2A O1 0.93 2.50 3.300(2) 144.8 1_545
N7 H7A O2 0.86 1.97 2.6358(19) 132.8 .
loop_
_geom_torsion_atom_site_label_1
_geom_torsion_atom_site_label_2
_geom_torsion_atom_site_label_3
_geom_torsion_atom_site_label_4
_geom_torsion
N7 C8 C9 C11 2.1(3)
N7 C8 C9 C10 -179.17(15)
C8 C9 C11 O2 -6.2(2)
C10 C9 C11 O2 175.22(15)
C8 C9 C11 O4 173.25(14)
C10 C9 C11 O4 -5.3(2)
C8 C9 C10 O1 -6.4(2)
C11 C9 C10 O1 172.18(16)
C8 C9 C10 O3 171.95(13)
C11 C9 C10 O3 -9.4(2)
C2 C1 C6 C5 -1.4(2)
N7 C1 C6 C5 178.77(14)
C1 C6 C5 F1 179.34(15)
C1 C6 C5 C4 -0.2(3)
F1 C5 C4 C3 -178.24(16)
C6 C5 C4 C3 1.3(3)
C5 C4 C3 F2 169.6(5)
C5 C4 C3 C2 -0.8(3)
F2 C3 C2 C1 -170.4(5)
C4 C3 C2 C1 -0.8(3)
C6 C1 C2 C3 1.9(2)
N7 C1 C2 C3 -178.25(15)
C9 C8 N7 C1 -177.08(15)
C6 C1 N7 C8 -6.8(3)
C2 C1 N7 C8 173.40(15)
O2 C11 O4 C13 -0.3(2)
C9 C11 O4 C13 -179.76(13)
C15 C13 O4 C11 -172.73(13)
O1 C10 O3 C12 1.2(2)
C9 C10 O3 C12 -177.23(13)
C14 C12 O3 C10 -175.31(14)
