#------------------------------------------------------------------------------
#$Date: 2016-02-18 17:37:37 +0200 (Thu, 18 Feb 2016) $
#$Revision: 176729 $
#$URL: svn://www.crystallography.net/cod/cif/1/51/73/1517337.cif $
#------------------------------------------------------------------------------
#
# This file is available in the Crystallography Open Database (COD),
# http://www.crystallography.net/
#
# All data on this site have been placed in the public domain by the
# contributors.
#
data_1517337
loop_
_publ_author_name
'Rudebusch, Gabriel E.'
'Fix, Aaron G.'
'Henthorn, Hillary A.'
'Vonnegut, Chris L.'
'Zakharov, Lev N.'
'Haley, Michael M.'
_publ_section_title
;
 Quinoidal diindenothienoacenes: synthesis and properties of new
 functional organic materials
;
_journal_issue                   9
_journal_name_full               'Chemical Science'
_journal_page_first              3627
_journal_paper_doi               10.1039/C4SC01432D
_journal_volume                  5
_journal_year                    2014
_chemical_formula_sum            'C10 H4 O S'
_chemical_formula_weight         172.19
_chemical_name_systematic
;
 ?
;
_space_group_crystal_system      monoclinic
_space_group_IT_number           14
_space_group_name_Hall           '-P 2ybc'
_space_group_name_H-M_alt        'P 1 21/c 1'
_symmetry_space_group_name_Hall  '-P 2ybc'
_symmetry_space_group_name_H-M   'P 1 21/c 1'
_atom_sites_solution_hydrogens   geom
_audit_creation_method           SHELXL-2013
_cell_angle_alpha                90
_cell_angle_beta                 111.93(2)
_cell_angle_gamma                90
_cell_formula_units_Z            4
_cell_length_a                   12.983(4)
_cell_length_b                   3.9148(12)
_cell_length_c                   14.969(4)
_cell_measurement_temperature    100(2)
_cell_volume                     705.8(4)
_computing_structure_refinement  'SHELXL-2013 (Sheldrick, 2013)'
_diffrn_ambient_temperature      100(2)
_diffrn_measured_fraction_theta_full 0.929
_diffrn_measured_fraction_theta_max 0.967
_diffrn_radiation_type           CuK\a
_diffrn_radiation_wavelength     1.54178
_diffrn_reflns_av_R_equivalents  0.0777
_diffrn_reflns_av_unetI/netI     0.0730
_diffrn_reflns_Laue_measured_fraction_full 0.929
_diffrn_reflns_Laue_measured_fraction_max 0.967
_diffrn_reflns_limit_h_max       15
_diffrn_reflns_limit_h_min       -15
_diffrn_reflns_limit_k_max       4
_diffrn_reflns_limit_k_min       -4
_diffrn_reflns_limit_l_max       17
_diffrn_reflns_limit_l_min       -17
_diffrn_reflns_number            3991
_diffrn_reflns_point_group_measured_fraction_full 0.929
_diffrn_reflns_point_group_measured_fraction_max 0.967
_diffrn_reflns_theta_full        67.679
_diffrn_reflns_theta_max         65.971
_diffrn_reflns_theta_min         3.670
_exptl_absorpt_coefficient_mu    3.500
_exptl_crystal_density_diffrn    1.621
_exptl_crystal_F_000             352
_exptl_crystal_size_max          0.180
_exptl_crystal_size_mid          0.040
_exptl_crystal_size_min          0.020
_refine_diff_density_max         0.536
_refine_diff_density_min         -0.543
_refine_diff_density_rms         0.129
_refine_ls_extinction_method     none
_refine_ls_goodness_of_fit_ref   1.034
_refine_ls_hydrogen_treatment    constr
_refine_ls_matrix_type           full
_refine_ls_number_parameters     109
_refine_ls_number_reflns         1188
_refine_ls_number_restraints     0
_refine_ls_restrained_S_all      1.034
_refine_ls_R_factor_all          0.1084
_refine_ls_R_factor_gt           0.0848
_refine_ls_shift/su_max          0.000
_refine_ls_shift/su_mean         0.000
_refine_ls_structure_factor_coef Fsqd
_refine_ls_weighting_details
'w=1/[\s^2^(Fo^2^)+(0.1615P)^2^] where P=(Fo^2^+2Fc^2^)/3'
_refine_ls_weighting_scheme      calc
_refine_ls_wR_factor_gt          0.2128
_refine_ls_wR_factor_ref         0.2292
_reflns_Friedel_coverage         0.000
_reflns_number_gt                870
_reflns_number_total             1188
_reflns_threshold_expression     'I > 2\s(I)'
_cod_duplicate_entry             1516674
_cod_data_source_file            c4sc01432d2.cif
_cod_data_source_block           cu_mh121_0m
_cod_original_cell_volume        705.7(4)
_cod_database_code               1517337
#BEGIN Tags that were not found in dictionaries:
_shelx_space_group_comment
;
The symmetry employed for this shelxl refinement is uniquely defined
by the following loop, which should always be used as a source of
symmetry information in preference to the above space-group names.
They are only intended as comments.
;
_shelx_estimated_absorpt_t_min   0.571
_shelx_estimated_absorpt_t_max   0.933
_shelxl_version_number           2013-4
_shelx_res_file
;
TITL cu_mh121_0m in P2(1)/c
CELL 1.54178 12.9827 3.9148 14.9690 90.000 111.935 90.000
ZERR 4.00 0.0037 0.0012 0.0036 0.000 0.021 0.000
LATT 1
SYMM -x, y+1/2, -z+1/2
SFAC C  H  O  S
UNIT 40  16  4  4
OMIT -3 132
L.S. 8
ACTA
BOND $H
FMAP 2
PLAN 20
CONF
HTAB
TEMP -173
size 0.02 0.04 0.18
WGHT    0.161500
FVAR       0.27862
S1    4    0.002625    0.934953    0.140431    11.00000    0.02646    0.03372 =
         0.02022    0.00164    0.01021    0.00140
O1    3    0.240184    0.509201    0.288100    11.00000    0.03748    0.04583 =
         0.02136    0.00039    0.01073    0.00054
C1    1    0.121293    0.749820    0.134962    11.00000    0.02146    0.02900 =
         0.02434    0.00267    0.00855   -0.00059
C2    1    0.218017    0.567756    0.203241    11.00000    0.02603    0.03280 =
         0.02285   -0.00358    0.00814   -0.00583
C3    1    0.285497    0.477872    0.143682    11.00000    0.02740    0.02940 =
         0.02544   -0.00195    0.00893   -0.00722
C4    1    0.385506    0.308723    0.171792    11.00000    0.03166    0.02956 =
         0.02295   -0.00221    0.00776   -0.00632
AFIX  43
H4A   2    0.422479    0.234750    0.236389    11.00000   -1.20000
AFIX   0
C5    1    0.430931    0.249421    0.101502    11.00000    0.02549    0.03608 =
         0.03355   -0.00322    0.00996   -0.00112
AFIX  43
H5A   2    0.500157    0.135008    0.118395    11.00000   -1.20000
AFIX   0
C6    1    0.374761    0.357891    0.007131    11.00000    0.03071    0.03294 =
         0.03681   -0.00821    0.01976   -0.00670
AFIX  43
H6A   2    0.405956    0.313020   -0.039860    11.00000   -1.20000
AFIX   0
C7    1    0.274532    0.529577   -0.019827    11.00000    0.03070    0.03680 =
         0.01963   -0.00322    0.00963   -0.00925
AFIX  43
H7A   2    0.237058    0.601381   -0.084563    11.00000   -1.20000
AFIX   0
C8    1    0.229885    0.594785    0.049063    11.00000    0.02544    0.02562 =
         0.02649    0.00161    0.00992   -0.00385
C9    1    0.127774    0.768491    0.045129    11.00000    0.02756    0.03010 =
         0.02297   -0.00495    0.00886   -0.00907
C10   1    0.038206    0.942745   -0.020783    11.00000    0.02822    0.02446 =
         0.02371   -0.00252    0.01267   -0.00581
HKLF 4 1 1 0 0 0 1 0 0 0 1

REM  cu_mh121_0m in P2(1)/c
REM R1 =  0.0848 for     870 Fo > 4sig(Fo)  and  0.1084 for all    1188 data
REM    109 parameters refined using      0 restraints

END

WGHT      0.1605      0.0000

REM No hydrogen bonds found for HTAB generation

REM Highest difference peak  0.536,  deepest hole -0.543,  1-sigma level  0.129
Q1    1   0.0223  1.0463  0.1001  11.00000  0.05    0.54
Q2    1   0.0241  1.0952  0.0145  11.00000  0.05    0.51
Q3    1  -0.0150  1.0468  0.1740  11.00000  0.05    0.50
Q4    1   0.0631  0.7755  0.1323  11.00000  0.05    0.47
Q5    1   0.3516  0.4582  0.1834  11.00000  0.05    0.41
Q6    1   0.1752  0.7014  0.0432  11.00000  0.05    0.40
Q7    1   0.2070  0.4394  0.2560  11.00000  0.05    0.40
Q8    1   0.2827  0.0905  0.0402  11.00000  0.05    0.39
Q9    1  -0.0347  0.8036  0.1515  11.00000  0.05    0.38
Q10   1   0.0258  1.4133 -0.0374  11.00000  0.05    0.38
Q11   1  -0.0510  0.7811  0.2408  11.00000  0.05    0.38
Q12   1   0.2402  0.1731 -0.0911  11.00000  0.05    0.37
Q13   1   0.2271  0.5999  0.3404  11.00000  0.05    0.36
Q14   1   0.0935  0.6644  0.0840  11.00000  0.05    0.36
Q15   1  -0.0861  0.7258 -0.0819  11.00000  0.05    0.36
Q16   1   0.0462  1.0877  0.2779  11.00000  0.05    0.34
Q17   1   0.3794 -0.1120 -0.0189  11.00000  0.05    0.33
Q18   1   0.0298  0.5968  0.2418  11.00000  0.05    0.33
Q19   1   0.1385  0.9268  0.2497  11.00000  0.05    0.32
Q20   1   0.3205  0.3557  0.3009  11.00000  0.05    0.32
;
_shelx_res_checksum              5966
_shelx_hkl_file
;
   1   0   0  158.69    6.40
   2   0   0    9.47    1.19
   2   0   0    9.60    1.00
   3   0   0  210.37    6.93
   3   0   0  198.11    8.61
   4   0   0  316.60   10.40
   4   0   0  314.47   12.93
  -4   0   0  309.50   12.01
  -5   0   0  272.78   10.61
   5   0   0  271.55   11.44
  -6   0   0   22.81    2.95
  -7   0   0  116.47    5.54
  -8   0   0  310.25   12.39
  -9   0   0   73.22    4.86
  10   0   0   22.58    1.91
  10   0   0   16.39    1.65
  10   0   0   19.12    2.18
  11   0   0    4.27    1.71
  11   0   0    4.16    1.90
  11   0   0    2.29    1.50
  12   0   0    2.23    1.57
  12   0   0   -0.04    1.79
  13   0   0   11.78    1.58
  14   0   0   27.41    2.03
   0  -1   0   -0.74    1.53
  -1  -1   0   16.96    2.48
   1  -1   0   20.99    2.42
   2  -1   0  575.57   18.91
  -2  -1   0  592.52   21.81
   2  -1   0  595.65   23.51
  -3  -1   0   73.75    3.93
   3  -1   0   70.40    4.22
   3  -1   0   75.71    3.59
  -4  -1   0   20.37    2.90
   4  -1   0   18.90    1.87
   4  -1   0   19.81    2.32
  -5  -1   0    1.19    1.96
   5  -1   0    0.23    2.11
   5  -1   0    0.66    1.65
   6  -1   0   25.50    3.08
   6  -1   0   24.83    3.86
  -6  -1   0   29.11    3.46
  -7  -1   0    5.53    2.38
   7  -1   0    3.29    2.69
  -8  -1   0   14.19    2.72
   8  -1   0   15.65    2.82
  -8   1   0    9.84    3.34
   9  -1   0   13.26    1.53
   9  -1   0   13.42    2.10
   9  -1   0   10.24    1.64
   9   1   0   14.37    1.69
  -9   1   0   13.59    1.75
   9   1   0   14.05    2.07
   9   1   0   13.69    2.58
  10  -1   0   24.78    1.95
  10  -1   0   21.89    1.79
  10  -1   0   22.43    2.63
  10   1   0   22.81    1.94
  10   1   0   21.75    3.00
  10   1   0   22.86    2.60
 -10   1   0   22.71    2.07
  11  -1   0    1.12    1.86
  11  -1   0    4.24    1.62
  11  -1   0    1.85    1.69
  11   1   0    4.03    1.97
  11   1   0    1.54    1.62
 -11   1   0    1.53    1.82
  12  -1   0    1.66    1.68
  12  -1   0    0.78    1.71
 -12   1   0    1.11    1.84
  12   1   0   -0.64    1.55
  12   1   0    0.53    1.79
  13  -1   0   -1.84    1.55
 -13  -1   0    0.23    1.62
  13   1   0    0.81    1.54
 -13   1   0    1.25    1.48
  14   1   0    5.68    1.24
   0  -2   0   93.35    4.78
   1  -2   0   91.49    4.70
  -1  -2   0   89.75    4.64
   1  -2   0   94.34    4.28
   2  -2   0   32.87    3.04
  -2  -2   0   31.61    3.09
  -3  -2   0  123.58    5.84
   3  -2   0  131.26    5.22
  -4  -2   0  576.00   21.81
  -5  -2   0   34.87    3.98
   5   2   0   29.25    3.20
  -6  -2   0   10.48    3.27
   7  -2   0    1.51    1.39
   7   2   0    0.79    1.82
   7   2   0   -0.21    1.68
   7   2   0    3.51    3.67
   8  -2   0    9.49    1.60
   8   2   0    8.47    2.22
   8   2   0   11.40    1.92
   9  -2   0    2.35    1.51
   9   2   0    4.16    2.13
   9   2   0    3.73    2.60
   9   2   0    1.60    1.85
  10  -2   0    2.29    1.54
  10   2   0    4.06    1.76
  10   2   0    6.74    2.70
  10   2   0    5.91    1.92
  11  -2   0   12.57    1.63
  11   2   0   15.10    2.00
  11   2   0   12.72    2.60
  11   2   0   10.99    1.72
  12  -2   0   12.26    1.50
  12   2   0   12.74    2.33
 -12   2   0   11.10    1.64
  12   2   0   11.22    1.61
  13  -2   0    7.29    1.08
  13   2   0   10.04    1.35
 -13   2   0    7.82    1.26
   0  -3   0   -4.77    2.96
   0  -3   0   -1.93    2.39
   0   3   0   -0.30    1.59
  -1  -3   0    5.53    3.09
  -1  -3   0    5.87    2.41
  -1   3   0    5.79    1.47
  -2   3   0    5.51    1.52
   2   3   0    5.33    2.25
  -3   3   0    4.23    1.49
   3   3   0    8.75    2.21
  -4   3   0    2.95    1.61
   4   3   0    5.57    2.14
   5   3   0   47.40    3.24
  -5   3   0   47.40    3.04
   5   3   0   39.80    2.89
   6   3   0   28.52    2.94
  -6   3   0   28.99    2.37
   6   3   0   25.55    2.01
   7   3   0    1.50    2.14
  -7   3   0    1.25    1.99
   7   3   0    4.16    1.72
   8   3   0   -3.18    1.70
  -8   3   0   -2.04    1.86
   8   3   0   -2.22    2.09
  -9   3   0   -1.50    1.81
   9   3   0    1.35    1.58
   9   3   0   -2.85    2.57
   9   3   0    1.65    1.95
  10   3   0    2.24    1.30
 -10   3   0    1.84    1.62
  10   3   0    3.30    1.71
  10   3   0   -1.72    2.72
 -11   3   0    1.70    1.19
   0   4   0    9.08    2.04
   1   4   0    1.06    1.82
  -1   4   0    0.65    1.44
  -1   4   0   -1.18    1.90
   2   4   0    1.01    1.75
  -2   4   0    0.58    1.49
  -2   4   0   -0.31    2.07
   3   4   0   -0.68    1.76
  -3   4   0    3.82    1.61
   4   4   0    0.57    1.89
  -4   4   0   -0.41    1.64
  -5   4   0    8.62    1.83
   5   4   0    6.42    1.95
  -6   4   0    4.83    1.67
   6   4   0    3.34    1.83
  -7   4   0   13.73    1.54
   7   4   0   18.39    1.99
   7   4   0   11.58    2.61
  14   0  -1   -0.52    1.18
  13   0  -1   -0.47    1.49
  13   0  -1   -0.85    1.74
 -12   0   1   -0.12    1.66
  12   0  -1   -1.42    1.56
  12   0  -1   -3.10    1.59
  12   0  -1    0.31    1.88
  11   0  -1    0.30    1.64
  11   0  -1   -0.77    1.44
  11   0  -1    2.17    1.98
  10   0  -1   -0.40    1.90
  10   0  -1    2.13    1.57
  10   0  -1    0.07    1.32
  -9   0   1    4.77    2.27
  -8   0   1    2.99    2.02
   7   0  -1   -0.16    1.86
  -7   0   1    0.27    1.78
  -6   0   1   -1.49    1.69
   6   0  -1    0.16    1.76
  -5   0   1    0.81    1.68
   5   0  -1    1.26    1.66
   4   0  -1   -0.80    1.52
  -4   0   1    0.28    1.57
   3   0  -1    0.19    1.34
  -3   0   1    1.98    1.43
   2   0  -1   -0.18    0.96
  -2   0   1    0.16    1.01
   0   0   1   -0.36    0.33
   1   0   1   -0.04    0.55
   1   0   1   -0.02    0.59
   1   0   1    0.32    0.77
   2   0   1   -0.01    1.11
   3   0   1   -0.54    1.32
   4   0   1   -0.82    1.38
  -5   0  -1   -0.32    1.94
   5   0   1   -0.69    1.45
  -6   0  -1    1.58    2.11
  -7   0  -1    2.03    2.36
  -8   0  -1    4.86    2.68
   9   0   1    0.20    1.76
   9   0   1    0.47    1.41
  -9   0  -1    7.42    3.01
  10   0   1   -0.24    1.46
  10   0   1    1.05    1.81
  11   0   1    0.42    1.49
  12   0   1   -1.47    1.47
 -12   0  -1    0.90    1.67
  13   0   1   -2.13    1.45
 -14  -1   1    1.04    1.42
  14  -1  -1   -0.06    1.27
  14   1  -1    0.93    1.20
  13  -1  -1    7.71    1.72
 -13  -1   1    7.30    1.71
 -13   1   1    8.68    1.57
  13   1  -1    3.73    1.58
  13   1  -1    6.30    1.76
  12  -1  -1   28.53    2.69
  12  -1  -1   32.22    2.61
  12   1  -1   34.47    2.75
  12   1  -1   30.25    2.82
 -12   1   1   38.85    2.89
  11  -1  -1    0.86    1.94
  11  -1  -1    1.72    1.60
 -11   1   1    4.52    1.77
  11   1  -1    2.18    1.55
  11   1  -1   -0.18    1.98
  10  -1  -1    0.90    1.97
  10  -1  -1    2.10    1.56
  10   1  -1    2.60    1.98
  10   1  -1    2.43    1.56
 -10   1   1    1.36    1.63
   9  -1  -1   16.77    1.62
   9  -1  -1   14.83    2.26
  -9   1   1   12.37    1.71
   9   1  -1   17.05    2.15
   9   1  -1   16.97    1.71
  -8  -1   1   25.67    3.45
   8  -1  -1   21.45    3.19
  -7  -1   1   83.71    4.80
   7  -1  -1   90.25    5.46
   6  -1  -1   45.87    4.07
  -6  -1   1   48.94    3.57
   5  -1  -1    0.08    1.97
  -5  -1   1    0.39    1.82
   4  -1  -1   56.23    3.96
  -4  -1   1   53.88    3.48
  -3  -1   1  295.29   11.34
   3  -1  -1  295.94   12.22
   2  -1  -1  518.56   19.04
   2  -1  -1  503.17   20.58
  -2  -1   1  504.54   19.09
   2  -1  -1  516.31   16.50
  -2   1   1  526.57   16.61
   1  -1  -1   -0.26    1.43
  -1  -1   1   -0.33    1.60
  -1  -1   1   -0.05    0.60
   0  -1  -1    4.86    1.56
   0  -1   1    7.08    1.71
   1  -1   1  968.18   31.45
   1  -1   1 1000.00   36.21
  -1  -1  -1  993.67   36.20
   2  -1   1  423.68   14.07
  -2  -1  -1  439.80   16.17
  -3  -1  -1   27.62    2.95
   3  -1   1   27.84    2.96
   3  -1   1   22.48    2.93
   3   1   1   23.92    3.00
  -4  -1  -1    7.33    2.23
   4  -1   1    6.61    2.10
   4  -1   1    4.77    1.82
   4   1   1    7.51    2.14
   5  -1   1  159.21    7.44
  -5  -1  -1  145.68    6.92
   5  -1   1  168.43    6.13
   5   1   1  150.59    6.13
   6  -1   1  139.80    7.02
   6  -1   1  139.39    5.80
  -6  -1  -1  136.82    6.61
   7  -1   1    0.04    2.16
  -7  -1  -1    7.53    2.58
  -8  -1  -1   11.98    2.87
  -8   1  -1   -0.36    3.64
   9  -1   1   22.21    2.25
   9  -1   1   30.20    2.54
   9  -1   1   26.18    2.40
   9   1   1   25.99    2.96
   9   1   1   28.77    2.66
  -9   1  -1   24.31    2.05
   9   1   1   21.94    2.37
  10  -1   1    6.49    1.82
  10  -1   1    6.23    1.56
  10  -1   1    5.32    1.88
 -10   1  -1    4.65    1.90
  10   1   1    7.82    1.76
  10   1   1    7.09    1.97
  10   1   1    9.87    2.76
  11  -1   1    2.33    1.59
  11  -1   1    2.47    1.73
 -11   1  -1   -3.87    1.91
  11   1   1    1.30    2.46
  11   1   1    0.66    1.65
  12  -1   1    1.78    1.76
  12   1   1    0.39    1.61
  13  -1   1    1.28    1.48
  13   1   1    0.30    1.48
 -13   1  -1    0.79    1.40
  13  -2  -1    3.32    1.12
  13   2  -1    5.27    1.38
 -13   2   1    3.97    1.33
  12  -2  -1    1.22    1.38
  12   2  -1    2.14    1.80
 -12   2   1    2.83    1.77
  12   2  -1    1.38    1.50
  11  -2  -1    3.29    1.43
  11   2  -1    0.24    1.55
  11   2  -1    1.43    1.77
  11   2  -1    1.41    2.38
  10  -2  -1   17.20    1.73
  10   2  -1   19.69    1.95
  10   2  -1   22.63    2.33
  10   2  -1   18.03    2.84
   9  -2  -1   -0.60    1.46
   9   2  -1    2.71    2.34
   9   2  -1    1.10    2.12
   9   2  -1   -0.47    1.73
   8  -2  -1    0.39    1.38
   8  -2  -1    1.69    2.13
   8   2  -1    3.42    1.71
   8   2  -1    1.16    1.93
  -7  -2   1   28.36    3.71
  -6  -2   1    9.75    2.90
  -5  -2   1   46.71    4.03
  -4  -2   1    3.85    2.23
   3  -2  -1    0.63    1.67
  -3  -2   1   -0.35    1.93
  -2  -2   1  103.19    5.01
   2  -2  -1  106.58    4.45
   2  -2  -1   99.50    5.02
  -1  -2   1   20.46    2.48
   1  -2  -1   19.08    2.55
  -1   2   1   14.07    2.31
   0  -2  -1   20.20    2.52
   0  -2   1   19.93    2.56
   0   2   1   14.82    2.27
   1  -2   1   11.10    2.36
  -1  -2  -1   12.73    2.31
   1  -2   1   10.89    1.93
   1   2   1   11.33    2.28
  -2  -2  -1   19.14    2.42
   2  -2   1   17.18    2.12
   2   2   1   18.21    2.51
   3  -2   1  244.84    8.71
  -3  -2  -1  234.09    9.83
   3   2   1  250.19    9.09
   4  -2   1   13.72    2.37
  -4  -2  -1   19.16    2.89
   4   2   1   16.69    2.74
  -5  -2  -1    1.54    2.83
  -6  -2  -1   60.15    5.58
   7  -2   1   28.73    2.41
   7   2   1   46.93    4.97
   7   2   1   31.63    2.23
   7   2   1   29.46    2.52
   8  -2   1   41.28    2.58
   8   2   1   40.66    4.40
   8   2   1   38.10    3.18
   8   2   1   28.38    3.01
   9  -2   1    4.95    1.62
   9   2   1    6.34    2.76
   9   2   1    3.31    1.87
   9   2   1    6.18    2.05
  10  -2   1    3.84    1.56
  10   2   1    4.25    1.76
  10   2   1    4.58    1.88
  10   2   1    3.82    2.75
  11  -2   1   27.78    2.42
  11   2   1   35.60    2.82
 -11   2  -1   30.87    2.71
  11   2   1   31.08    4.30
  12  -2   1    7.30    1.33
 -12   2  -1    5.71    1.40
  12   2   1    8.38    2.29
  12   2   1    7.23    1.47
 -11   3   1   -0.16    1.37
  11   3  -1    2.10    2.25
  11   3  -1    0.87    1.52
  11   3  -1    0.40    1.19
 -10   3   1   -1.33    1.68
  10   3  -1   -2.06    2.57
  10   3  -1    0.55    1.81
  10   3  -1   -0.29    1.39
   9   3  -1    1.05    2.13
  -9   3   1    0.82    1.85
   9   3  -1   -0.01    2.52
   9   3  -1   -1.20    1.62
   8   3  -1    7.50    2.28
   8   3  -1    7.82    1.75
  -8   3   1    7.91    2.04
  -7   3   1    1.57    2.02
   7   3  -1    3.20    1.71
   7   3  -1   -0.03    2.17
  -6   3   1    6.31    1.96
   6   3  -1    6.85    2.19
   6   3  -1    6.24    1.69
   5   3  -1    7.11    2.17
  -5   3   1    5.66    1.77
   5   3  -1    7.19    1.61
   4   3  -1    2.67    1.40
  -4   3   1   -0.93    1.45
   4   3  -1    1.20    2.06
   3   3  -1   31.36    2.55
   3   3  -1   32.12    2.25
   3   3  -1   35.54    3.12
  -3   3   1   30.62    2.51
  -2   3   1    2.80    1.94
  -2   3   1    4.34    1.56
   2   3  -1    3.82    1.53
   2   3  -1    6.83    2.19
   1   3  -1    1.03    1.44
  -1   3   1    4.51    2.02
  -1   3   1    1.30    1.52
   0  -3   1    2.97    2.42
   0  -3  -1    0.74    3.04
   0   3  -1    4.24    1.47
   0   3   1    5.86    2.08
  -1   3  -1    6.98    1.43
   1   3   1   13.15    2.30
   2  -3   1   15.76    1.99
  -2   3  -1   13.59    1.53
   2   3   1    8.84    2.86
   2   3   1   23.32    2.55
   3   3   1    1.26    2.11
   3   3   1   -2.38    2.74
  -3   3  -1    1.32    1.38
  -4   3  -1   -1.48    1.43
   4   3   1   -1.34    1.97
   4   3   1   -5.08    2.73
   5   3   1   49.97    3.23
  -5   3  -1   49.24    3.03
   7   3   1    5.34    1.78
  -7   3  -1    5.80    2.01
   7   3   1    4.29    2.15
   8  -3   1    2.08    1.40
  -8   3  -1    1.36    1.89
   8   3   1    2.14    1.67
   8   3   1   -3.98    2.60
   8   3   1   -1.13    2.10
   9  -3   1    0.82    1.31
   9   3   1    0.89    1.82
   9   3   1    0.71    1.46
  -9   3  -1    2.08    1.78
   9   3   1   -1.57    2.84
  10  -3   1   -0.55    1.13
 -10   3  -1    0.85    1.36
  10   3   1    0.54    1.13
  10   3   1    1.23    2.50
   7   4  -1    1.95    1.74
  -7   4   1    1.01    1.54
   6   4  -1    9.37    2.00
  -6   4   1   11.79    1.73
  -5   4   1   -1.62    1.60
   5   4  -1    0.50    1.91
  -4   4   1    1.84    1.62
   4   4  -1    0.43    1.81
  -3   4   1    4.14    2.14
   3   4  -1    5.87    1.85
  -3   4   1    7.96    1.63
   2   4  -1    7.08    1.85
  -2   4   1    5.33    2.06
   1   4  -1   13.19    2.06
  -1   4   1   15.55    2.22
   0   4  -1    0.07    1.82
   0   4   1    1.76    1.86
   0   4  -1    2.57    1.43
   1   4   1   -0.51    1.83
  -1   4  -1    2.22    1.49
  -2   4  -1   19.82    1.75
   2   4   1   13.73    2.03
  -3   4  -1   18.80    1.74
   3   4   1   14.38    2.09
   4   4   1   17.12    2.14
  -4   4  -1   22.54    1.92
   5   4   1    6.21    1.91
  -5   4  -1    1.51    1.58
   6   4   1   16.95    2.02
  -6   4  -1   13.63    1.69
   6   4   1    9.54    2.95
  -7   4  -1   48.64    2.28
   7   4   1   45.06    2.73
   7   4   1   45.92    4.01
  14   0  -2    1.16    1.62
  13   0  -2   35.62    2.77
  13   0  -2   33.24    2.82
  13   0  -2   34.11    2.62
 -12   0   2    4.58    1.68
  12   0  -2    7.81    1.67
  12   0  -2    5.86    2.11
  12   0  -2    1.97    1.62
  11   0  -2   13.78    1.77
  11   0  -2   11.39    2.28
  11   0  -2    9.70    1.55
 -11   0   2   10.53    1.66
  10   0  -2    1.19    1.53
  10   0  -2    0.53    1.85
  10   0  -2   -0.64    1.25
   8   0  -2    5.14    2.05
  -8   0   2    3.64    1.72
  -7   0   2    3.39    1.68
   7   0  -2    2.98    1.83
   6   0  -2   20.43    2.71
  -6   0   2   20.71    2.58
  -5   0   2   44.28    2.93
   5   0  -2   42.39    3.04
  -4   0   2  124.27    5.24
   4   0  -2  130.04    5.72
   3   0  -2  197.88    8.23
   2   0  -2   13.58    1.56
  -1   0   2  376.09   12.01
  -1   0   2  393.97   12.25
   1   0  -2  373.86   15.15
   0   0   2   72.95    2.71
   0   0   2   70.78    2.64
   0   0   2   74.81    2.73
   1   0   2  257.62    8.67
   1   0   2  262.14    8.44
   1   0   2  272.01    8.66
   2   0   2   27.07    2.02
   2   0   2   24.68    2.42
   2   0   2   24.57    2.02
   3   0   2   34.83    2.66
   4   0   2    7.93    1.54
  -5   0  -2    6.85    2.22
   5   0   2    6.99    1.62
  -6   0  -2   10.67    2.60
  -7   0  -2   33.36    4.22
  -8   0  -2    8.33    3.17
   9   0   2   11.68    2.47
   9   0   2   10.29    1.62
  10   0   2   22.34    1.87
  10   0   2   33.14    4.34
  11   0   2   12.93    1.67
  12   0   2   13.10    1.66
  13   0   2    2.00    1.41
 -14  -1   2    8.66    1.50
  14  -1  -2    4.18    1.41
  14   1  -2    4.10    1.25
  14   1  -2    7.70    1.64
  13  -1  -2   -1.81    1.80
 -13  -1   2    1.18    1.57
  13  -1  -2   -0.03    1.60
  13   1  -2   -0.04    1.50
 -13   1   2    1.10    1.44
  13   1  -2   -0.02    1.83
  12  -1  -2    0.69    1.85
 -12  -1   2    0.22    1.43
  12  -1  -2    2.26    1.54
  12   1  -2    1.46    1.55
  12   1  -2    1.64    1.94
 -12   1   2    0.07    1.58
  11  -1  -2    0.67    2.02
  11  -1  -2   -1.98    1.49
  11   1  -2   -0.50    1.49
 -11   1   2   -0.07    1.58
  11   1  -2    2.73    2.01
  10  -1  -2    1.51    1.44
  10  -1  -2   -0.17    2.00
  10   1  -2    0.48    1.44
 -10   1   2   -1.14    1.59
  10   1  -2   -0.41    1.88
  -9  -1   2   30.04    3.47
   9  -1  -2   30.79    4.40
  -8  -1   2   36.16    3.55
   8  -1  -2   34.67    4.33
   7  -1  -2   14.46    2.61
  -7  -1   2   13.91    2.29
   6  -1  -2   59.69    4.25
  -6  -1   2   59.76    3.68
   5  -1  -2    6.41    2.07
  -5  -1   2    8.64    1.87
  -4  -1   2   -0.92    1.62
   4  -1  -2   -0.27    1.87
  -3  -1   2    3.61    1.72
  -3  -1   2    1.87    0.73
   3  -1  -2    4.43    1.77
  -2  -1   2   29.69    1.75
  -2  -1   2   30.28    2.73
   2  -1  -2   30.75    2.83
  -2   1   2   31.05    2.46
  -1  -1   2  231.61    7.40
   1  -1  -2  215.65    9.52
   1  -1  -2  218.99    8.65
  -1  -1   2  238.15    8.88
  -1   1   2  237.68    7.87
   0  -1   2   23.04    2.39
   0  -1   2   20.09    1.84
   0  -1  -2   16.42    1.82
   0  -1   2   21.59    2.56
   0  -1  -2   13.68    1.89
   0   1   2   22.90    2.48
   1  -1   2  397.30   12.83
  -1  -1  -2  397.35   14.69
   1   1   2  380.89   12.94
   2  -1   2   29.57    2.75
  -2  -1  -2   31.01    2.94
   2   1   2   28.25    2.91
   3  -1   2    3.49    1.76
   3  -1   2    2.34    1.75
  -3  -1  -2    2.29    2.11
   3   1   2    0.32    2.01
   4  -1   2   13.20    2.07
   4  -1   2   14.97    2.27
  -4  -1  -2   14.59    2.50
   4   1   2   19.05    2.29
  -5  -1  -2    3.31    2.34
   5  -1   2    0.28    2.01
   5   1   2    2.01    2.18
   6  -1   2   11.19    2.43
  -6  -1  -2   15.40    2.81
   7  -1   2    1.40    2.50
  -7  -1  -2   12.86    3.04
   8  -1   2   35.31    2.58
   8  -1   2   37.45    2.59
   8   1   2   36.58    2.84
   8   1   2   32.12    4.11
   9  -1   2   41.34    2.84
   9  -1   2   38.27    2.74
  -9   1  -2   34.72    3.09
   9   1   2   37.49    4.83
   9   1   2   43.45    3.04
  10  -1   2   11.54    1.68
  10  -1   2    7.92    1.89
 -10   1  -2   17.01    2.18
  10   1   2   11.15    2.80
  10   1   2   10.46    1.91
  11  -1   2   -1.71    1.71
  11   1   2    0.42    1.66
  11   1   2    1.74    2.39
  12  -1   2   -1.21    1.69
  12   1   2    1.69    2.11
  12   1   2    0.85    1.58
  13  -1   2    0.76    1.31
  13   1   2   -0.25    1.33
  13  -2  -2    2.72    1.23
  13   2  -2    2.18    1.64
  13   2  -2    0.02    1.38
 -13   2   2    2.45    1.50
  12  -2  -2    1.60    1.41
  12   2  -2    1.30    1.52
  12   2  -2    1.61    1.74
  11  -2  -2    2.23    1.43
  11   2  -2    2.42    1.54
  11   2  -2    4.34    2.43
 -11   2   2    2.81    1.54
  11   2  -2    2.49    1.80
  10  -2  -2    6.01    1.51
  10  -2  -2    7.77    2.23
  10   2  -2    9.41    2.13
  10   2  -2    7.02    1.76
  10   2  -2    8.94    2.56
 -10   2   2    7.08    1.64
   9  -2  -2   30.65    2.33
   9  -2  -2   26.22    3.10
   9   2  -2   24.91    2.96
   9   2  -2   30.72    2.09
   8  -2  -2    4.21    1.36
   8  -2  -2    4.93    2.20
   8   2  -2    2.16    1.96
   8   2  -2    3.57    1.57
  -7  -2   2   18.91    3.13
   6  -2  -2    1.83    3.04
  -6  -2   2    5.81    2.53
  -5  -2   2    0.52    2.16
   5  -2  -2   -2.57    2.73
  -4  -2   2   10.45    2.30
   4  -2  -2    5.64    2.60
  -3  -2   2   16.56    2.37
   3  -2  -2   15.49    2.54
   2  -2  -2    2.28    1.58
  -2  -2   2    2.62    2.08
   2  -2  -2    7.24    2.08
   2  -2  -2    0.20    2.00
  -2   2   2    2.54    2.02
   1  -2  -2   21.62    2.98
  -1  -2   2   24.17    3.12
  -1   2   2   22.23    2.39
   0  -2   2   14.27    2.44
   0  -2   2   14.12    2.03
   0  -2  -2   16.84    2.45
   0   2   2   15.91    2.22
  -2  -2  -2   19.02    2.68
   2  -2   2   16.44    2.12
   2   2   2   17.96    2.53
   3  -2   2  126.29    5.61
  -3  -2  -2  120.06    5.92
   3   2   2  124.18    5.97
   4  -2   2   17.91    2.72
  -4  -2  -2   20.35    3.16
   4   2   2   13.96    2.87
   5  -2   2    9.19    2.74
  -5  -2  -2   10.78    3.35
  -6  -2  -2    6.07    3.64
   6  -2   2    0.99    1.39
   6   2   2   -7.17    3.28
   7  -2   2    7.45    1.65
   7   2   2    7.30    1.91
   7   2   2    9.98    2.56
   7   2   2   19.10    4.83
   7   2   2    8.23    2.09
   8   2   2   16.14    5.50
   9  -2   2    5.10    1.71
   9   2   2    6.21    1.91
   9   2   2    8.30    1.89
   9   2   2    9.00    2.98
  10  -2   2    3.20    1.55
  10   2   2    3.41    2.75
 -10   2  -2    2.50    1.62
  10   2   2    3.92    1.81
  11  -2   2    0.78    1.42
  11   2   2    0.58    1.57
 -11   2  -2    1.14    1.40
  11   2   2   -2.07    2.54
  12  -2   2    1.43    1.08
  12   2   2    0.49    1.92
 -12   2  -2    0.51    1.05
  12   2   2    1.04    1.22
 -11   3   2   19.77    1.70
  11   3  -2   18.66    1.55
  11   3  -2   23.11    2.03
  11   3  -2   16.89    2.50
  10   3  -2   12.46    2.07
  10   3  -2   11.25    1.65
  10   3  -2    9.21    2.62
 -10   3   2   15.70    1.95
  -9   3   2   25.56    2.33
   9   3  -2   24.29    1.97
   9   3  -2   24.95    2.67
  -8   3   2    1.45    1.94
   8   3  -2    1.32    1.62
   8   3  -2   -1.43    2.19
  -7   3   2    4.31    1.97
   7   3  -2    3.07    2.18
   7   3  -2    3.39    1.68
  -6   3   2    5.82    1.88
   6   3  -2   11.74    2.26
   6   3  -2    9.40    1.73
   5   3  -2   33.13    3.07
  -5   3   2   31.14    2.72
   5   3  -2   30.31    2.51
  -4   3   2   17.69    2.41
   4   3  -2   26.21    2.29
   4   3  -2   29.79    3.00
   4   3  -2   25.88    2.52
  -4   3   2   26.97    2.54
   3   3  -2   40.15    2.67
   3   3  -2   38.07    2.35
  -3   3   2   34.20    2.76
   3   3  -2   41.28    3.20
  -2   3   2   26.31    2.83
   2   3  -2   29.43    2.39
   2   3  -2   28.49    2.24
  -2   3   2   28.10    2.55
   1   3  -2    6.44    1.30
  -1   3   2    8.66    1.99
   1   3  -2    5.80    1.44
   0   3   2   33.00    2.90
   0   3  -2   25.54    2.26
   1  -3   2    5.74    1.67
  -1   3  -2    2.53    1.25
   1   3   2    5.00    2.24
  -2   3  -2   15.86    1.51
   2   3   2   25.17    2.84
   3   3   2   18.62    2.30
  -3   3  -2   10.94    1.45
  -4   3  -2   58.61    2.88
   4   3   2   58.88    3.33
   4   3   2   41.25    4.72
   5   3   2  133.13    7.12
  -5   3  -2  134.22    4.70
   5   3   2  138.55    5.29
   6   3   2   11.27    2.18
  -6   3  -2    6.12    1.90
   7  -3   2   11.06    1.49
   7   3   2   12.29    2.22
   7   3   2    8.90    2.91
  -7   3  -2    8.92    1.96
   8  -3   2    8.39    1.44
   8   3   2    5.55    2.85
  -8   3  -2   12.78    1.90
   8   3   2   13.72    2.07
   9  -3   2   14.78    1.46
   9   3   2   17.96    3.12
  -9   3  -2   18.01    1.83
  10   3   2   11.57    2.20
 -10   3  -2    8.37    1.25
   8   4  -2    0.16    1.49
   7   4  -2    3.83    1.73
  -7   4   2    3.88    1.53
   6   4  -2    3.68    1.96
  -6   4   2    2.09    1.55
  -5   4   2    4.40    1.56
  -5   4   2    0.91    2.17
   5   4  -2    3.14    1.92
   4   4  -2   -0.91    1.82
  -4   4   2   -0.88    2.14
   3   4  -2    3.29    1.90
  -3   4   2    2.85    2.15
   2   4  -2    2.39    1.43
   2   4  -2    0.73    1.80
  -2   4   2    1.13    2.04
  -1   4   2    1.80    1.88
   1   4  -2    4.99    1.46
   0   4  -2    1.13    1.41
   0   4   2    0.98    1.91
   1   4   2   -2.25    1.84
  -1   4  -2   -0.36    1.39
  -2   4  -2    0.28    1.42
   2   4   2    1.43    1.79
  -3   4  -2    5.52    1.57
   3   4   2    6.16    1.90
   4   4   2   -0.67    1.82
  -4   4  -2   -0.30    1.50
  -5   4  -2   -0.53    1.46
   5   4   2    0.34    1.87
   6   4   2   14.93    1.82
   6   4   2    6.76    2.79
  -6   4  -2    8.85    1.39
  14   0  -3   -0.14    1.43
  14   0  -3   -1.62    1.75
  13   0  -3    0.40    1.59
 -13   0   3   -0.17    1.49
  13   0  -3   -0.01    1.92
  12   0  -3   -0.15    2.09
  12   0  -3    2.24    1.59
 -12   0   3   -0.59    1.55
  11   0  -3   -3.16    1.54
  11   0  -3   -1.14    2.05
 -11   0   3   -0.28    1.47
  10   0  -3   -1.64    1.43
  10   0  -3    0.11    1.86
 -10   0   3   -0.29    1.37
   9   0  -3    3.61    2.15
   8   0  -3    1.99    1.94
   7   0  -3    0.36    1.66
  -7   0   3    1.94    1.43
   6   0  -3    0.21    1.49
  -6   0   3    1.78    1.39
  -5   0   3    0.80    1.28
   5   0  -3   -0.36    1.36
   4   0  -3    0.13    1.33
   3   0  -3    0.75    1.21
   2   0  -3   -0.37    0.92
  -2   0   3    0.10    0.75
  -1   0   3    0.06    0.85
  -1   0   3   -0.44    0.94
   0   0   3    0.55    1.12
   0   0   3   -0.10    0.89
   0   0   3   -1.14    1.11
   1   0   3   -1.74    1.36
   1   0   3    0.33    0.91
   1   0   3    0.90    1.30
   2   0   3   -0.98    1.50
   2   0   3   -0.34    1.46
   2   0   3   -0.78    1.03
   3   0   3   -2.12    1.52
   3   0   3    0.16    1.49
   4   0   3   -0.74    1.52
   5   0   3   -1.37    1.65
  -5   0  -3    1.58    2.40
  -6   0  -3    1.50    2.76
  -7   0  -3    7.89    3.33
   8   0   3   -1.22    1.48
   8   0   3    0.24    2.16
   9   0   3    2.21    1.56
   9   0   3   -0.46    2.28
  10   0   3    1.86    2.39
  10   0   3    1.49    1.60
  11   0   3   -1.17    1.47
  11   0   3    1.26    2.25
  12   0   3   -0.85    1.53
  14  -1  -3    7.83    1.50
  14  -1  -3   11.98    1.86
 -14  -1   3    8.47    1.49
  14   1  -3    4.20    1.32
  14   1  -3   10.26    1.81
  13  -1  -3   21.07    2.22
 -13  -1   3   19.63    1.80
  13  -1  -3   17.26    1.72
  13   1  -3   15.03    1.70
 -13   1   3   15.53    1.62
  13   1  -3   18.78    2.17
  12  -1  -3   44.29    2.59
  12  -1  -3   42.66    3.10
 -12  -1   3   43.86    2.61
 -12   1   3   46.54    2.71
  12   1  -3   37.96    3.14
  12   1  -3   44.09    2.77
  11  -1  -3   31.63    2.40
  11  -1  -3   34.42    3.11
  11   1  -3   33.43    2.55
  11   1  -3   33.93    2.86
 -11   1   3   33.09    2.61
  10  -1  -3    4.18    1.38
  10  -1  -3    3.87    2.11
  10   1  -3    5.07    1.91
  10   1  -3    4.14    1.43
 -10   1   3    3.28    1.51
   9  -1  -3   37.99    4.40
   8  -1  -3  149.76    7.38
  -8  -1   3  134.75    6.36
   7  -1  -3   65.14    4.53
  -7  -1   3   60.84    3.76
  -6  -1   3    9.40    1.91
   6  -1  -3    9.68    2.25
   5  -1  -3   35.55    3.40
  -5  -1   3   37.21    2.87
  -4  -1   3  193.66    7.56
  -4  -1   3  183.05    6.28
   4  -1  -3  188.63    8.27
  -3  -1   3  154.55    5.30
   3  -1  -3  157.61    6.91
  -3  -1   3  164.72    6.44
  -3   1   3  146.37    5.56
   2  -1  -3    5.64    1.67
  -2  -1   3    3.96    0.96
  -2  -1   3    6.24    1.73
  -2   1   3    6.78    1.68
  -1  -1   3    0.11    1.45
  -1  -1   3    0.78    0.92
  -1  -1   3    1.30    1.66
   1  -1  -3    1.56    1.51
  -1   1   3    1.19    1.64
   0  -1   3  132.93    5.61
   0  -1   3  132.77    4.95
   0  -1  -3  130.08    5.44
   0  -1  -3  128.64    5.99
   0  -1   3  129.51    4.67
   0   1   3  132.46    5.16
   1  -1   3  100.81    4.09
  -1  -1  -3   93.29    4.46
   1  -1   3   96.00    3.81
   1   1   3   94.27    4.29
   2  -1   3   19.46    1.97
  -2  -1  -3   20.88    2.97
   2   1   3   20.57    2.18
  -3  -1  -3    9.85    2.41
   3  -1   3    7.75    1.90
   3   1   3    8.26    2.28
  -4  -1  -3   56.27    4.18
   4  -1   3   55.59    3.81
   4   1   3   57.50    3.96
  -5  -1  -3   91.49    5.20
   5  -1   3   93.09    4.77
   6  -1   3   22.18    2.74
  -6  -1  -3   31.02    3.93
  -7  -1  -3   18.38    3.36
   7  -1   3    9.05    2.81
   8  -1   3   48.16    2.90
   8  -1   3   46.40    2.89
   8  -1   3   47.36    4.99
   8   1   3   46.82    3.11
   8   1   3   62.81   10.00
   8   1   3   45.12    4.75
   9  -1   3   38.13    2.71
   9  -1   3   32.10    2.79
   9  -1   3   37.39    4.81
   9   1   3   30.88    3.38
   9   1   3   36.56    3.11
  10  -1   3   10.38    1.66
  10  -1   3   12.16    1.90
  10   1   3   10.11    1.93
  10   1   3   11.21    2.76
  11  -1   3   18.28    2.01
  11   1   3   19.76    2.64
  11   1   3   14.63    1.89
  12  -1   3   34.48    2.61
  12   1   3   39.10    4.06
  12   1   3   35.56    2.70
  13  -2  -3    7.17    1.37
 -13   2   3    6.96    1.29
  13   2  -3    6.80    1.75
 -13   2   3    7.48    1.64
  13   2  -3    3.40    1.40
  12  -2  -3    1.16    1.39
 -12   2   3    1.26    1.36
  12   2  -3    1.74    1.52
  12   2  -3    1.29    1.73
  11  -2  -3    3.74    1.41
 -11   2   3    5.49    1.48
  11   2  -3    2.66    1.55
  11   2  -3    5.16    1.93
  10  -2  -3    4.06    1.40
  10  -2  -3    5.38    2.24
  10   2  -3    4.18    2.01
 -10   2   3    5.31    1.52
  10   2  -3    4.32    1.64
   9  -2  -3    2.37    2.28
   9  -2  -3    2.62    1.36
   9   2  -3    0.77    2.08
  -9   2   3    2.26    1.48
   9   2  -3    3.67    1.55
   8  -2  -3    7.87    1.35
   8  -2  -3    8.44    2.40
  -8   2   3    6.00    1.48
   8   2  -3    5.95    1.98
   8   2  -3    6.76    1.50
  -7  -2   3    5.86    2.41
   7  -2  -3    1.53    3.34
   6  -2  -3   -1.24    3.03
  -6  -2   3    0.42    2.16
  -5  -2   3   18.12    2.48
   5  -2  -3   13.43    3.18
   4  -2  -3    5.00    2.60
  -4  -2   3    4.77    2.12
   3  -2  -3    4.05    2.31
  -3  -2   3    0.57    2.02
  -2  -2   3    1.33    2.16
  -2   2   3    2.41    2.03
  -1  -2   3   10.38    2.03
   1  -2  -3   13.54    2.20
  -1  -2   3   13.39    2.46
  -1   2   3   11.12    2.11
   0  -2   3    9.92    2.03
   0  -2   3   13.16    2.47
   0  -2  -3   13.27    2.34
   0   2   3   15.16    2.26
   3  -2   3   37.00    4.08
  -3  -2  -3   32.73    3.80
   3   2   3   31.60    3.10
   4  -2   3    5.16    2.54
  -4  -2  -3    1.61    2.88
  -5  -2  -3    4.55    3.21
   5  -2   3   -0.44    2.78
   6  -2   3   11.87    1.67
   6  -2   3   11.26    2.51
   6   2   3    7.09    3.46
   6   2   3   11.52    2.67
   6   2   3   10.97    1.96
   7  -2   3   11.16    1.73
   7   2   3   24.48    5.36
   7   2   3   12.49    2.01
   7   2   3   10.05    2.19
   7   2   3   12.86    2.89
   8   2   3   12.99    6.09
   8   2   3    2.97    2.87
   9  -2   3    3.22    1.65
   9   2   3   -0.60    2.87
   9   2   3    3.51    1.90
  -9   2  -3    3.30    1.67
  10  -2   3    4.06    1.56
  10   2   3    3.36    2.82
  10   2   3    4.79    1.80
 -10   2  -3    3.38    1.45
  11  -2   3    3.29    1.32
  11   2   3    5.12    1.41
  11   2   3    4.08    2.56
 -11   2  -3    3.21    1.28
  11   3  -3    1.66    2.27
  11   3  -3    5.80    1.46
 -11   3   3    4.17    1.58
  11   3  -3    3.28    1.71
 -10   3   3   -0.27    1.82
  10   3  -3   -1.29    1.54
  10   3  -3    0.46    1.98
  10   3  -3    1.04    2.41
  -9   3   3    0.57    1.87
   9   3  -3    0.39    2.24
   9   3  -3    0.95    1.55
   8   3  -3   13.41    2.47
   8   3  -3   11.79    1.78
  -8   3   3   17.05    2.11
  -7   3   3    8.68    1.97
   7   3  -3    9.12    1.76
   7   3  -3    9.31    2.30
   6   3  -3    0.12    2.11
  -6   3   3    2.07    1.78
   6   3  -3    1.74    1.55
  -6   3   3    0.15    2.47
   5   3  -3   -0.55    2.05
  -5   3   3   -0.05    2.26
   5   3  -3    2.66    1.47
   5   3  -3    0.41    1.47
  -5   3   3   -2.08    1.66
   4   3  -3    5.68    2.18
  -4   3   3    5.98    1.69
   4   3  -3    9.31    1.49
   4   3  -3    7.71    1.55
  -4   3   3    6.94    2.25
   3   3  -3    8.26    1.46
   3   3  -3    5.82    1.52
  -3   3   3    5.51    2.12
   2   3  -3    0.58    1.34
   2   3  -3    1.68    1.42
  -2   3   3   -1.80    1.97
   1   3  -3   -0.44    1.23
   1   3  -3   -0.22    1.29
  -1   3   3    3.98    1.94
  -1   3   3    1.06    1.91
   0  -3   3    6.02    1.62
   0   3   3    4.69    2.08
   0   3  -3    0.89    1.21
   0   3   3    4.15    2.05
   1  -3   3    9.83    1.83
   1   3   3    9.42    2.25
   1   3   3    7.61    2.09
  -1   3  -3    4.73    1.32
   2  -3   3    1.88    1.72
  -2   3  -3   -2.16    1.20
   2   3   3    2.07    2.08
   2   3   3   -1.75    2.04
   3  -3   3    3.14    1.89
  -3   3  -3    2.28    1.40
   3   3   3   -0.18    2.03
   4  -3   3    2.63    2.06
   4   3   3    0.64    1.98
  -4   3  -3    1.26    1.49
   5   3   3   -1.89    3.57
   5   3   3    9.05    2.07
  -5   3  -3    8.12    1.71
   6  -3   3    1.18    1.25
  -6   3  -3    0.86    1.74
   6   3   3    0.93    1.94
   6   3   3   -0.78    2.89
   7  -3   3   -0.85    1.30
   7   3   3   -1.75    1.99
  -7   3  -3    0.01    1.73
   7   3   3   -4.58    2.85
   8  -3   3    1.11    1.29
   8   3   3   -2.77    3.13
  -8   3  -3    2.60    1.62
   9  -3   3    3.32    1.15
  -9   3  -3    4.75    1.39
   9   3   3    3.13    2.71
   8   4  -3    3.32    1.52
   7   4  -3    0.23    1.68
   7   4  -3    2.13    1.10
  -7   4   3   -0.94    1.91
   6   4  -3   -1.23    1.88
   6   4  -3    0.21    1.18
  -6   4   3    1.40    2.14
  -5   4   3    2.60    2.13
   5   4  -3    2.51    1.85
   5   4  -3    4.03    1.35
   4   4  -3    7.69    1.97
   4   4  -3    9.14    1.41
  -4   4   3    5.72    2.11
   3   4  -3    0.64    1.84
   3   4  -3    0.25    1.35
   3   4  -3    0.42    1.31
  -3   4   3   -0.10    2.05
   2   4  -3    3.62    1.43
  -2   4   3    1.21    2.07
  -1   4   3    1.31    2.03
   1   4  -3    3.39    1.32
   0   4  -3    2.68    1.36
   0   4   3    0.85    1.95
   1   4   3    1.05    1.78
  -1   4  -3   -0.54    1.38
  -2   4  -3    1.66    1.41
   2   4   3    0.19    1.76
   3   4   3   10.78    1.93
  -3   4  -3    9.95    1.60
  -4   4  -3    0.72    1.39
   4   4   3   -3.79    2.68
   4   4   3    1.51    1.80
   5   4   3   -4.26    2.62
   5   4   3    2.80    1.69
  -5   4  -3    1.89    1.31
  -6   4  -3   10.52    1.19
  15   0  -4   27.80    1.96
  15   0  -4   34.00    2.50
 -15   0   4   32.93    2.15
  14   0  -4   24.41    2.67
  14   0  -4   21.80    1.79
 -14   0   4   22.44    1.72
  13   0  -4    6.86    2.09
  13   0  -4    6.41    1.61
 -13   0   4    5.85    1.53
 -12   0   4   50.00    2.67
  12   0  -4   46.14    2.74
  12   0  -4   50.27    3.49
  11   0  -4  112.49    3.71
  11   0  -4  112.02    4.83
 -11   0   4  114.39    3.72
  10   0  -4   27.09    2.52
  10   0  -4   23.34    1.76
 -10   0   4   19.69    1.68
   9   0  -4   42.72    4.13
   8   0  -4   76.37    4.57
   7   0  -4  327.99   13.63
   6   0  -4  212.71    9.07
   5   0  -4    2.98    1.39
  -4   0   4  116.26    4.29
   4   0  -4  111.99    5.21
   3   0  -4  109.80    5.00
  -3   0   4  112.06    4.14
  -2   0   4  202.66    6.85
  -2   0   4  204.46    6.78
   2   0  -4  198.50    8.29
  -1   0   4   62.57    3.00
  -1   0   4   55.04    2.86
   0   0   4   31.87    2.34
   0   0   4   27.69    2.40
   0   0   4   26.62    2.47
   1   0   4   82.12    3.41
   1   0   4   83.11    3.68
   1   0   4   83.80    3.68
   2   0   4  493.28   15.41
   2   0   4  471.87   15.75
   2   0   4  483.05   15.77
   3   0   4   15.23    1.81
   3   0   4   13.10    1.80
   4   0   4    0.21    1.66
   5   0   4   17.92    2.11
  -5   0  -4   19.92    3.10
  -6   0  -4   41.19    4.74
  -7   0  -4   97.13    6.75
   8   0   4    1.14    2.21
   8   0   4    0.12    5.25
   8   0   4    0.93    1.61
   9   0   4   60.13    3.26
   9   0   4   55.91    4.83
  10   0   4   96.20    3.76
  10   0   4   95.54    5.83
  11   0   4    1.40    1.55
  11   0   4    1.38    2.23
  12   0   4    8.97    1.53
  12   0   4   10.91    2.23
  15  -1  -4    0.22    1.05
  14  -1  -4    0.53    1.38
 -14  -1   4    1.80    1.44
  14  -1  -4    3.15    1.76
  14   1  -4    1.23    1.29
  14   1  -4    2.86    1.73
 -13  -1   4    2.07    1.49
  13  -1  -4    1.69    1.90
  13  -1  -4    2.76    1.48
  13   1  -4    0.64    1.85
 -13   1   4    2.15    1.40
  13   1  -4    1.38    1.53
  12  -1  -4    3.91    2.08
 -12  -1   4    0.48    1.46
  12  -1  -4    1.80    1.45
  12   1  -4    2.75    1.57
 -12   1   4    0.45    1.51
  12   1  -4    3.63    1.99
  11  -1  -4    0.34    2.11
  11  -1  -4   -0.94    1.39
  11   1  -4    0.55    1.39
  11   1  -4   -0.14    1.90
 -11   1   4   -0.60    1.46
  10  -1  -4    1.52    2.22
  10  -1  -4    1.39    1.36
 -10   1   4    2.26    1.40
  10   1  -4    1.39    1.34
  10   1  -4    1.50    1.86
   9  -1  -4    4.17    2.61
   8  -1  -4    2.05    2.47
  -7  -1   4   11.09    1.89
   7  -1  -4   11.87    2.49
  -6  -1   4    3.54    1.63
   6  -1  -4    2.05    2.15
  -5  -1   4   54.18    3.20
   5  -1  -4   51.14    3.74
  -5  -1   4   48.48    2.57
  -4  -1   4   12.69    1.18
   4  -1  -4   13.40    2.06
  -4   1   4   14.93    1.45
  -3  -1   4   -0.13    1.57
  -3  -1   4   -0.16    0.93
   3  -1  -4    1.29    1.57
  -3   1   4    3.29    1.41
  -2  -1   4    3.88    1.65
   2  -1  -4    4.20    1.70
  -2  -1   4    2.79    1.06
  -2  -1   4    5.07    1.59
  -2   1   4    4.38    1.84
  -1  -1   4    5.60    1.70
   1  -1  -4    7.61    1.71
  -1  -1   4    5.58    1.53
  -1  -1   4    4.89    1.11
  -1   1   4    6.14    1.93
  -1   1   4    4.58    1.07
   0  -1   4    2.18    1.11
   0  -1  -4    5.51    1.69
   0  -1   4    3.84    1.55
   0   1   4    4.87    1.87
   0   1   4    2.76    0.95
  -1  -1  -4    0.97    1.87
   1  -1   4    1.61    1.63
   1  -1   4    1.00    1.04
   1   1   4   -0.58    2.04
  -2  -1  -4   31.89    3.31
   2  -1   4   27.77    3.03
   2   1   4   29.19    3.63
  -3  -1  -4   13.07    2.73
   3  -1   4    9.37    2.06
   3   1   4   11.66    2.54
  -4  -1  -4   47.41    4.14
   4  -1   4   46.17    3.84
   4   1   4   50.17    3.97
   5  -1   4    9.35    2.37
  -5  -1  -4   15.19    2.94
  -6  -1  -4   11.37    3.00
   6  -1   4    2.88    2.46
   6   1   4   14.27    3.88
   7  -1   4   -1.00    1.61
   7  -1   4    0.26    2.43
   7  -1   4    0.94    4.56
   7  -1   4    1.19    1.56
   7   1   4    0.95    1.71
   7   1   4    6.25    4.55
   7   1   4    1.24    2.22
   8  -1   4    8.35    2.67
   8  -1   4    7.71    1.68
   8  -1   4    8.85    1.83
   8   1   4    7.70    2.73
   8   1   4    8.69    1.95
   8   1   4   10.99    5.66
   9  -1   4    6.48    1.62
   9  -1   4    6.28    1.84
   9  -1   4    5.30    2.51
   9   1   4    5.41    1.98
   9   1   4    6.40    2.75
  10  -1   4    2.27    2.20
  10  -1   4    1.95    1.81
  10   1   4   -1.89    1.80
  10   1   4    0.82    2.50
  11  -1   4   10.28    1.82
  11   1   4    9.35    1.75
  11   1   4   11.38    2.62
  12   1   4    3.71    2.13
  12   1   4    1.51    1.35
  13  -2  -4    3.15    1.39
  13   2  -4    3.13    1.68
  13   2  -4    3.69    1.41
 -13   2   4    3.60    1.31
 -13   2   4    3.29    1.67
  12  -2  -4   23.16    1.73
  12   2  -4   25.47    2.22
 -12   2   4   24.89    2.25
  12   2  -4   23.38    1.80
  11  -2  -4   31.87    2.39
  11  -2  -4   30.26    3.06
  11   2  -4   31.41    2.85
 -11   2   4   36.64    2.39
  11   2  -4   33.12    2.67
  10  -2  -4   38.83    3.27
  10  -2  -4   37.35    2.35
 -10   2   4   38.71    2.51
  10   2  -4   36.77    2.98
  10   2  -4   35.99    2.68
   9  -2  -4    1.58    1.30
   9  -2  -4    3.15    2.33
   9   2  -4   -0.56    2.06
  -9   2   4    2.03    1.42
   9   2  -4    0.26    1.45
   8  -2  -4   22.96    2.63
  -8   2   4   22.31    1.68
   8   2  -4   22.22    2.34
   8   2  -4   19.38    1.82
   8   2  -4   18.63    1.68
  -7  -2   4   54.17    4.03
   7  -2  -4   56.53    5.70
   6  -2  -4   27.44    3.69
  -6  -2   4   26.93    3.24
   5  -2  -4    8.80    2.96
  -5  -2   4   10.81    2.33
  -4  -2   4   27.90    2.88
   4  -2  -4   30.56    4.21
   3  -2  -4   97.35    5.42
  -3  -2   4   85.15    4.95
  -2  -2   4   70.95    4.26
  -2  -2   4   65.13    4.43
   2  -2  -4   86.17    4.94
  -2   2   4   69.35    4.24
  -1  -2   4   24.04    2.41
  -1  -2   4   26.64    3.01
  -1   2   4   27.92    3.31
   3  -2   4   21.64    2.89
  -3  -2  -4   24.70    3.36
   4  -2   4    4.08    2.64
  -4  -2  -4    7.96    3.20
   5   2   4   31.38    5.97
   6  -2   4   77.21    5.54
   6  -2   4   68.94    8.93
   6  -2   4   83.12    3.27
   6   2   4   95.90    5.80
   6   2   4   89.38    9.78
   6   2   4   84.49    9.23
   6   2   4   83.08    5.75
   7   2   4   14.26    5.75
   8  -2   4   -0.71    2.26
   8  -2   4   -1.33    1.67
   8   2   4   -0.31    2.95
   8   2   4    1.13    1.84
   9  -2   4    1.84    1.54
   9   2   4    1.50    2.90
   9   2   4    4.71    1.92
  10  -2   4    8.88    1.55
  10   2   4    6.49    1.59
  10   2   4   10.13    2.98
  11  -2   4    5.54    1.09
  11   2   4    7.07    2.17
  11   2   4    5.98    1.18
  12   3  -4    1.89    1.61
 -11   3   4    2.53    1.65
  11   3  -4    6.01    1.83
  11   3  -4    3.63    1.51
 -10   3   4    4.26    1.84
  10   3  -4    7.50    1.67
  10   3  -4    6.68    2.22
  10   3  -4    6.71    2.36
  -9   3   4    2.16    1.91
   9   3  -4    1.30    2.28
   9   3  -4    1.78    1.53
  -8   3   4    0.77    2.57
   8   3  -4    2.65    2.30
  -8   3   4    4.50    1.86
   8   3  -4    4.87    1.61
   7   3  -4    1.18    1.59
  -7   3   4   -1.39    2.48
  -7   3   4    1.15    1.79
   7   3  -4    2.01    2.26
   7   3  -4    2.08    1.62
   6   3  -4    4.25    2.26
   6   3  -4    5.93    1.61
   6   3  -4    6.09    1.58
  -6   3   4    5.48    1.77
  -6   3   4    2.73    2.57
   5   3  -4   12.15    1.70
   5   3  -4    9.08    1.55
  -5   3   4    6.61    2.41
   4   3  -4    5.50    1.55
   4   3  -4    7.05    1.45
  -4   3   4    4.93    2.31
  -3   3   4    0.42    2.10
   3   3  -4   -0.59    1.43
   3   3  -4    1.09    1.42
   2   3  -4   22.28    1.66
  -2   3   4   22.30    2.48
   2   3  -4   22.24    2.28
  -2   3   4   22.53    2.97
  -1  -3   4   31.92    2.89
  -1   3   4   26.93    3.26
  -1   3   4   26.16    2.73
   1   3  -4   24.61    2.22
   0  -3   4   11.52    1.81
   0   3   4    8.19    2.22
   0   3  -4    6.58    1.30
   0   3   4   11.10    2.23
   1  -3   4    3.68    1.70
  -1   3  -4    1.10    1.22
   1   3   4   -0.02    2.09
   1   3   4    2.53    2.17
   2  -3   4    1.21    1.81
   2   3   4   -1.90    2.10
   2   3   4   -0.97    2.02
  -2   3  -4   -1.70    1.26
   3  -3   4   13.00    2.26
   3   3   4   17.16    2.16
  -3   3  -4   11.62    1.60
   3   3   4   12.65    2.35
   4  -3   4    2.73    1.14
   4  -3   4   -1.07    2.13
   4   3   4    1.48    1.96
   4   3   4    9.49    4.74
  -4   3  -4    0.58    1.50
   5  -3   4   -2.54    2.16
   5  -3   4    0.22    1.14
   5   3   4   -2.01    2.62
   5   3   4    2.05    1.89
  -5   3  -4    0.03    1.58
   5   3   4   -7.60    4.18
   5   3   4   -3.00    3.00
   6  -3   4    5.48    1.30
   6  -3   4    3.90    2.19
   6   3   4    8.44    2.11
  -6   3  -4    4.75    1.72
   6   3   4    0.19    5.11
   6   3   4    3.61    3.15
   7  -3   4    1.75    1.24
  -7   3  -4    2.77    1.61
   7   3   4    0.96    3.36
   8  -3   4    4.90    1.24
   8   3   4   10.37    3.34
  -8   3  -4    5.03    1.48
   9  -3   4    0.30    0.92
   9   3   4    0.18    2.19
   8   4  -4   -1.69    1.54
   7   4  -4    0.46    1.07
  -7   4   4    1.70    1.85
   7   4  -4    0.79    1.70
   6   4  -4    0.18    1.16
  -6   4   4    1.36    2.02
   6   4  -4   -1.20    1.81
  -5   4   4    0.63    2.12
   5   4  -4    0.27    1.91
   5   4  -4   -1.69    1.22
   4   4  -4   -0.32    1.23
  -4   4   4    0.90    2.15
   4   4  -4    0.86    1.37
   3   4  -4    0.72    1.33
  -3   4   4    1.63    2.06
   3   4  -4    1.85    1.30
   2   4  -4    0.52    1.26
  -2   4   4    1.09    2.09
   2   4  -4    3.13    1.35
  -1   4   4    0.47    2.00
   1   4  -4    0.54    1.26
   1   4  -4    1.49    1.26
   0   4   4    0.40    1.91
   0   4  -4    2.18    1.29
  -1   4  -4    2.45    1.39
   1   4   4   -0.29    1.76
  -2   4  -4    0.39    1.37
   2   4   4    1.42    1.78
  -3   4  -4    0.39    1.36
   3   4   4    0.27    1.74
  -4   4  -4    6.52    1.37
   4   4   4    7.83    1.71
  -5   4  -4   -0.57    1.13
 -15   0   5    0.86    1.21
  15   0  -5   -1.01    1.61
  15   0  -5   -1.52    1.16
  14   0  -5   -0.69    1.87
 -14   0   5    0.26    1.35
  14   0  -5    1.17    1.49
  13   0  -5    1.03    1.46
 -13   0   5   -2.21    1.33
  13   0  -5   -0.24    2.00
  12   0  -5   -2.05    1.48
 -12   0   5    1.84    1.41
  12   0  -5    0.96    2.12
  11   0  -5    0.72    1.46
 -11   0   5   -2.28    1.35
  11   0  -5    0.09    1.99
  10   0  -5   -2.09    1.83
 -10   0   5   -1.46    1.29
  10   0  -5    7.28    2.45
  10   0  -5    1.50    1.39
   9   0  -5    2.28    2.21
  -9   0   5   -2.19    1.70
   8   0  -5    0.27    1.79
   7   0  -5    0.60    1.65
  -6   0   5    0.58    1.11
   6   0  -5   -0.32    1.45
   5   0  -5    0.10    1.36
  -5   0   5   -0.18    1.01
   4   0  -5   -0.16    1.25
  -4   0   5   -1.22    1.06
   3   0  -5    0.65    1.12
  -3   0   5    0.03    1.08
  -2   0   5    0.03    1.17
  -2   0   5   -0.18    1.29
  -1   0   5    0.48    1.23
  -1   0   5   -0.38    1.33
   0   0   5    0.28    1.50
   0   0   5   -0.21    1.23
   0   0   5    0.30    1.40
   1   0   5   -1.64    1.72
   1   0   5    0.54    1.54
   1   0   5   -0.50    1.17
   2   0   5   -0.02    1.63
   2   0   5    0.86    1.22
   2   0   5    2.11    1.84
   3   0   5    0.02    1.67
   3   0   5    0.09    1.69
   4   0   5    1.14    1.78
  -4   0  -5   -0.50    2.74
   5   0   5    1.29    1.91
  -5   0  -5    0.78    3.04
  -6   0  -5   -2.19    3.42
   6   0   5    1.63    3.89
   7   0   5    0.88    4.12
   7   0   5   -0.52    3.43
   7   0   5   -0.47    2.14
   7   0   5    3.04    1.66
   8   0   5    2.60    5.57
   8   0   5    0.29    2.29
   8   0   5    1.25    1.73
   9   0   5   -0.51    2.38
   9   0   5   -0.48    1.68
  10   0   5    0.95    1.58
  10   0   5   -0.49    2.33
  11   0   5   -0.41    2.22
  11   0   5    0.44    1.50
  15  -1  -5    6.37    1.66
  15  -1  -5    3.27    1.09
  15   1  -5    5.93    1.58
  14  -1  -5   32.61    2.73
  14  -1  -5   36.96    2.34
 -14   1   5   35.61    2.35
  14   1  -5   33.17    2.71
  13  -1  -5   13.30    1.54
  13  -1  -5   19.04    2.25
 -13   1   5   19.01    1.65
  13   1  -5   16.61    1.77
  13   1  -5   19.56    2.20
  12  -1  -5    3.38    2.12
  12  -1  -5    2.86    1.43
  12   1  -5    3.48    1.90
  12   1  -5    2.67    1.57
 -12   1   5    2.43    1.52
  11  -1  -5    7.98    1.48
  11  -1  -5    8.56    2.27
  11   1  -5   10.50    2.02
 -11   1   5    8.12    1.51
  11   1  -5   10.05    1.51
  10  -1  -5   77.47    2.87
  10  -1  -5   81.60    4.06
  10   1  -5   80.27    2.96
  10   1  -5   74.79    3.09
  10   1  -5   74.46    3.77
 -10   1   5   80.83    3.06
   9  -1  -5   18.11    3.01
   8  -1  -5   -1.55    2.40
   7  -1  -5    7.48    2.45
  -6  -1   5  154.85    6.58
  -6  -1   5  163.81    5.76
   6  -1  -5  160.52    7.59
  -5  -1   5   54.13    3.19
   5  -1  -5   51.13    3.87
  -5  -1   5   52.04    2.79
  -4  -1   5   28.63    2.68
   4  -1  -5   27.90    3.01
  -4  -1   5   24.30    2.27
  -4   1   5   31.68    2.40
  -3  -1   5   13.94    1.73
  -3  -1   5   16.68    1.90
   3  -1  -5   12.29    1.80
  -3  -1   5   10.27    1.27
  -3   1   5   14.20    1.85
  -3   1   5   12.87    1.53
  -2  -1   5   39.56    2.69
  -2  -1   5   42.27    2.97
  -2  -1   5   45.62    2.98
   2  -1  -5   42.62    3.23
  -2   1   5   41.12    2.78
  -2   1   5   44.53    3.38
  -1  -1   5    6.55    1.62
   1  -1  -5    8.02    1.73
  -1  -1   5    6.65    1.24
  -1   1   5    6.90    1.22
  -1   1   5   10.08    1.99
   0  -1   5    7.87    1.29
   0  -1   5   10.63    1.73
   0   1   5   12.72    2.16
   1  -1   5    1.77    1.23
  -1  -1  -5    1.14    1.99
   1  -1   5    0.45    1.72
  -2  -1  -5   13.49    2.56
   2  -1   5    6.65    1.32
   2  -1   5    7.66    1.96
   2   1   5   11.78    2.49
  -3  -1  -5    7.69    2.80
   3  -1   5    1.93    2.03
   3   1   5    5.16    2.55
   4  -1   5    4.29    2.15
  -4  -1  -5    5.84    2.90
   5  -1   5   56.09   10.81
   6  -1   5    8.11    1.60
   6  -1   5   10.23    2.63
  -6  -1  -5   16.01    3.06
   6  -1   5    7.55    2.79
   6  -1   5   15.91    4.30
   6   1   5    7.38    2.37
   7  -1   5    2.43    2.49
   7  -1   5   -2.63    4.67
   7  -1   5   -0.02    1.67
   7  -1   5    0.08    1.56
   7   1   5    4.04    4.64
   7   1   5   -1.33    2.45
   7   1   5    5.69    3.07
   7   1   5   -3.16    1.77
   8  -1   5   15.35    2.78
   8  -1   5   16.76    1.91
   8   1   5   13.94    2.09
   8   1   5   16.74    2.94
   8   1   5   21.63    6.29
   9  -1   5    4.68    1.75
   9  -1   5    1.76    2.37
   9   1   5    2.62    1.93
   9   1   5    2.54    2.72
  10  -1   5    1.43    2.13
  10  -1   5   -0.86    1.68
  10   1   5   -0.64    1.80
  10   1   5    0.64    2.57
  11  -1   5   10.29    2.12
  11   1   5   11.19    2.69
  11   1   5    8.46    1.53
  14   2  -5    8.69    1.63
  13  -2  -5   17.20    1.59
 -13   2   5   26.44    2.23
  13   2  -5   13.62    1.50
  13   2  -5   18.85    1.98
 -13   2   5   16.45    1.89
  12  -2  -5    6.23    1.43
  12   2  -5    7.19    1.52
 -12   2   5    7.12    1.42
  12   2  -5    2.37    1.79
 -12   2   5    5.82    1.87
  11  -2  -5    5.60    1.42
  11  -2  -5    6.16    2.09
  11   2  -5    5.56    1.57
 -11   2   5    5.51    1.50
  11   2  -5    7.08    1.93
  10  -2  -5    4.72    1.37
  10  -2  -5    2.11    2.13
  10   2  -5    4.08    1.99
  10   2  -5    4.68    1.47
 -10   2   5    4.33    1.50
   9  -2  -5   29.42    3.39
   9   2  -5   29.23    2.42
   9   2  -5   26.97    3.09
   9   2  -5   28.85    2.52
  -9   2   5   31.71    2.50
   8  -2  -5   27.63    3.30
   8   2  -5   25.31    2.33
  -8   2   5   28.89    2.38
   8   2  -5   28.40    2.55
   8   2  -5   27.47    2.29
   7  -2  -5    1.90    3.03
  -7  -2   5    6.02    2.48
  -6  -2   5   35.75    3.56
   6  -2  -5   37.91    3.89
   5  -2  -5   38.24    4.49
  -5  -2   5   36.00    3.44
   4  -2  -5   92.49    5.56
  -4  -2   5   88.78    4.92
  -3  -2   5  150.94    6.91
   3  -2  -5  156.40    7.43
  -3  -2   5  147.79    6.39
  -1  -2   5   49.78    3.91
  -1  -2   5   42.75    3.90
  -1   2   5   46.57    3.55
   0  -2   5  107.35    5.19
   0   2   5  101.98    5.04
   2  -2   5   60.39    4.71
   4  -2   5   19.67    1.72
   4  -2   5    7.09    5.77
  -4  -2  -5   37.82    4.61
   4  -2   5   20.90    2.52
   4   2   5   33.60    5.24
   4   2   5   23.73    2.70
   4   2   5   21.77    2.97
   5  -2   5   43.57    4.46
   5  -2   5   49.14    2.65
   5  -2   5   38.14    7.12
   5   2   5   49.71    4.38
   5   2   5   65.94   10.56
   5   2   5   53.05    5.03
   5   2   5   58.55    7.57
   6  -2   5   -0.77    1.59
   6  -2   5    2.81    2.54
   6   2   5    8.25    3.44
   6   2   5    9.06    5.12
   6   2   5    0.83    2.69
   6   2   5    2.67    2.84
   7   2   5   34.22    7.10
   7   2   5   30.05    5.55
   8  -2   5    7.67    2.35
   8  -2   5    4.81    1.63
   8   2   5    3.51    3.07
   9  -2   5    1.75    1.49
   9  -2   5    1.57    1.96
   9   2   5    1.89    3.03
  10  -2   5   11.03    1.34
  10   2   5   17.22    2.74
  12   3  -5    0.24    1.41
  11   3  -5    2.93    1.79
 -11   3   5    1.19    1.55
  11   3  -5    1.06    1.50
  10   3  -5   11.88    1.70
 -10   3   5   10.30    1.79
 -10   3   5    2.14    2.27
  10   3  -5   10.94    2.34
  -9   3   5    4.80    2.54
   9   3  -5    6.15    2.40
   9   3  -5    7.14    1.59
  -9   3   5    6.81    1.87
   8   3  -5    4.82    2.39
   8   3  -5    7.18    1.86
  -8   3   5    2.06    2.63
   8   3  -5    4.39    1.60
  -7   3   5    0.52    2.47
   7   3  -5    1.38    2.32
   7   3  -5    4.90    1.62
   7   3  -5    4.31    1.53
   6   3  -5   11.86    1.76
   6   3  -5   15.23    1.67
  -6   3   5   13.47    2.75
   5   3  -5    6.90    1.51
   5   3  -5    4.87    1.56
  -5   3   5    5.83    2.40
   4   3  -5    1.64    1.43
   4   3  -5    1.71    1.41
  -4   3   5    0.69    2.19
   3   3  -5    2.52    1.34
  -3   3   5    3.69    2.23
   3   3  -5    4.71    1.42
  -3   3   5    0.54    1.80
  -2   3   5    1.44    2.12
   2   3  -5    1.81    1.30
  -2   3   5   -3.44    1.97
   2   3  -5    2.10    1.39
  -1  -3   5    3.15    1.59
  -1   3   5   -3.16    2.14
   1   3  -5    1.76    1.25
  -1   3   5    0.67    2.03
   0  -3   5    6.39    1.73
   0   3   5    6.83    2.22
   0   3   5    2.66    2.25
   0   3  -5    2.96    1.25
   1  -3   5    4.61    1.81
   1   3   5    1.68    2.08
   1   3   5   -0.18    2.18
  -1   3  -5    1.49    1.22
   2  -3   5    1.14    1.94
  -2   3  -5   -1.37    1.32
   2   3   5   -1.75    2.18
   2   3   5   -1.62    1.87
   3  -3   5    4.15    2.20
   3   3   5    5.37    1.90
   3   3   5   -3.44    2.88
   3   3   5    6.97    2.30
  -3   3  -5    6.01    1.52
   4  -3   5    2.60    1.11
   4  -3   5    1.20    2.32
  -4   3  -5    1.34    1.52
   4   3   5    3.54    3.14
   4   3   5    5.02    1.83
   4   3   5    2.90    3.11
   5  -3   5   -0.03    1.18
   5  -3   5   -0.70    2.30
   5   3   5   -3.69    3.11
   5   3   5    6.26    4.11
  -5   3  -5    0.50    1.58
   6  -3   5   -3.24    2.12
   6  -3   5    0.88    1.21
  -6   3  -5    2.34    1.58
   6   3   5   -2.02    5.57
   6   3   5    2.73    1.98
   6   3   5   -2.19    3.21
   7  -3   5    2.35    1.24
   7   3   5    0.14    3.27
  -7   3  -5    2.57    1.43
   8   3   5   -2.66    2.82
  -7  -4   5   24.90    2.23
   7   4  -5   25.88    1.89
   7   4  -5   21.85    2.46
  -6   4   5    7.40    2.10
   6   4  -5    8.57    1.27
  -5   4   5    5.85    2.20
   5   4  -5   14.53    1.35
   5   4  -5   15.05    1.53
  -4   4   5   33.62    3.15
   4   4  -5   38.43    2.41
   4   4  -5   39.37    2.11
  -3   4   5   13.67    2.32
   3   4  -5   21.68    2.10
   3   4  -5   17.41    1.44
  -2   4   5   13.16    2.24
   2   4  -5   21.20    2.04
   2   4  -5   18.01    1.43
   1   4  -5   11.81    1.35
   1   4  -5   10.78    1.36
  -1   4   5    9.63    2.05
   0   4  -5   28.11    2.08
   0   4   5   26.90    2.49
   0   4  -5   27.30    2.10
  -1   4  -5   50.34    2.51
   1   4   5   47.63    2.78
  -1   4  -5   45.58    2.36
  -2   4  -5    4.31    1.38
   2   4   5    7.62    1.72
   3   4   5    6.67    1.62
  -3   4  -5    6.60    1.29
  -4   4  -5   10.60    1.26
  15   0  -6    4.57    1.63
  15   0  -6    5.56    1.24
 -15   0   6    6.40    1.20
  14   0  -6    5.24    1.51
 -14   0   6    3.31    1.34
  14   0  -6    1.95    1.99
  13   0  -6    0.15    1.98
  13   0  -6    0.37    1.42
 -13   0   6    0.21    1.32
  12   0  -6   39.80    3.30
 -12   0   6   39.33    2.39
  12   0  -6   43.97    2.51
 -11   0   6   30.38    2.21
  11   0  -6   30.00    2.94
  11   0  -6   31.17    2.37
  10   0  -6   26.04    2.13
  10   0  -6   25.85    2.18
  10   0  -6   26.26    2.80
 -10   0   6   26.47    2.11
 -10   0   6   34.08    4.08
   9   0  -6   31.94    3.91
  -9   0   6   21.81    2.29
   8   0  -6    2.90    1.96
  -8   0   6    2.29    1.55
  -7   0   6   12.20    1.55
   7   0  -6   10.55    1.93
   6   0  -6  142.12    6.64
  -6   0   6  148.54    5.49
   5   0  -6   18.75    1.87
  -5   0   6   16.52    1.53
   4   0  -6   23.66    2.43
  -4   0   6   26.80    2.42
  -3   0   6  319.59   10.12
   3   0  -6  291.10   12.41
  -2   0   6   45.65    2.91
  -2   0   6   52.31    3.10
  -1   0   6    5.28    1.58
  -1   0   6    5.30    1.35
   0   0   6  293.15    9.96
   0   0   6  303.59    9.82
   0   0  -6  265.70   11.89
   0   0   6  303.55    9.69
   1   0   6  102.91    4.45
   1   0   6  103.51    4.21
   1   0   6  100.39    4.68
   2   0   6    0.71    1.69
   2   0   6    0.45    1.99
   2   0   6    2.14    1.29
   3   0   6  153.16    6.02
   4   0   6   56.93    3.82
  -4   0  -6   63.25    4.83
  -5   0  -6  111.93    6.73
   5   0   6  125.42   12.30
   6   0   6    2.34    4.00
   6   0   6   -0.15    1.64
   6   0   6    3.48    3.40
  -6   0  -6    3.53    3.88
   6   0   6   -0.48    2.06
   7   0   6   10.39    3.49
   7   0   6   13.70    1.88
   7   0   6   12.80    4.56
   7   0   6   11.78    2.43
   8   0   6  101.04    3.96
   8   0   6  102.00    5.91
   9   0   6    0.89    2.43
   9   0   6    1.65    1.72
  10   0   6   11.20    2.54
  10   0   6    7.92    1.70
  11   0   6   13.06    2.40
  15  -1  -6    6.58    1.14
  15  -1  -6   10.19    1.61
  15   1  -6    8.75    1.52
  14  -1  -6    2.94    1.93
  14  -1  -6    4.72    1.40
 -14   1   6    5.37    1.31
  14   1  -6    5.57    1.88
  13  -1  -6   -0.72    1.33
  13  -1  -6   -0.30    1.91
 -13   1   6   -0.20    1.35
  13   1  -6   -0.01    1.79
  12  -1  -6   11.18    1.53
  12  -1  -6   13.74    2.28
 -12   1   6   10.84    1.60
  12   1  -6   11.78    1.53
  12   1  -6   13.31    2.02
  11  -1  -6    0.28    1.33
  11  -1  -6    0.62    2.08
  11   1  -6    0.75    1.35
  11   1  -6    3.72    1.88
 -11   1   6    2.65    1.44
  10  -1  -6   30.01    2.08
  10  -1  -6   28.85    2.31
  10  -1  -6   28.45    3.17
  10   1  -6   31.35    2.31
  10   1  -6   28.61    2.77
  10   1  -6   25.89    2.27
 -10   1   6   33.03    2.33
   9  -1  -6    1.86    2.73
   8  -1  -6   17.13    2.97
   7  -1  -6   35.57    4.07
   6  -1  -6   -2.72    2.06
  -6  -1   6    1.26    1.21
   5  -1  -6   33.93    3.49
  -5  -1   6   37.10    2.65
  -5   1   6   35.55    2.82
  -4  -1   6    0.83    1.58
  -4  -1   6    0.68    1.13
   4  -1  -6    0.96    1.66
  -4  -1   6    0.70    1.53
  -4   1   6   -2.07    1.40
  -4   1   6    1.15    1.33
  -3  -1   6   63.81    3.44
  -3  -1   6   62.88    3.39
   3  -1  -6   62.35    3.80
  -3  -1   6   61.98    3.21
  -3   1   6   66.93    3.49
  -3   1   6   60.91    3.56
  -2  -1   6  104.30    4.43
   2  -1  -6  105.02    5.31
  -2  -1   6  102.69    4.40
  -2   1   6  111.83    4.36
  -2   1   6  107.01    4.76
  -1  -1   6    8.02    1.43
  -1  -1   6    9.82    1.76
  -1   1   6   10.01    1.38
  -1   1   6   15.11    2.11
   0  -1   6   -0.12    1.31
   0  -1   6   -0.27    1.68
   0  -1  -6    2.13    1.81
   0   1   6   -1.18    2.10
  -1  -1  -6   49.53    3.93
   1  -1   6   46.92    3.14
   1  -1   6   49.05    3.53
   1   1   6   49.43    3.97
  -2  -1  -6    8.43    2.47
   2  -1   6    1.98    1.35
   2  -1   6    2.37    2.00
   2   1   6    4.36    2.47
   3  -1   6   33.48    3.78
  -3  -1  -6   44.15    3.98
   3   1   6   36.07    4.10
  -4  -1  -6   12.67    3.01
   4  -1   6    8.16    4.35
   4  -1   6    3.41    2.19
   5  -1   6   14.17    4.70
   6  -1   6   34.74    5.58
   6  -1   6   28.09    2.54
   6  -1   6   26.83    3.07
   6  -1   6   26.15    4.58
   6   1   6   32.46    4.49
   6   1   6   33.05    4.70
   6   1   6   28.36    3.15
   7  -1   6   -2.54    5.24
   7  -1   6   -1.19    2.46
   7  -1   6   -0.45    1.66
   7   1   6    0.25    2.61
   7   1   6    1.39    2.70
   7   1   6    4.00    5.02
   7   1   6   -1.48    1.83
   8  -1   6    5.19    2.49
   8  -1   6    6.82    1.71
   8   1   6    3.80    2.77
   8   1   6    9.46    7.29
   8   1   6    7.41    1.95
   9  -1   6   -1.29    2.16
   9  -1   6    0.85    1.64
   9   1   6    1.40    2.63
   9   1   6   -0.61    1.89
  10  -1   6    1.84    2.04
  10   1   6    1.05    1.58
  10   1   6    0.86    2.73
  11  -1   6   17.84    2.04
  11   1   6   17.79    2.41
  11   1   6   12.02    1.30
  14   2  -6   11.90    1.60
  13  -2  -6    2.86    1.36
 -13   2   6    3.44    1.66
  13   2  -6    1.95    1.30
  13   2  -6    3.76    1.83
 -13   2   6    3.62    1.32
  12  -2  -6    2.23    1.32
  12  -2  -6    1.24    1.93
 -12   2   6    0.24    1.32
 -12   2   6    0.15    1.77
  12   2  -6    0.87    1.46
  12   2  -6    0.51    1.77
  11  -2  -6    3.46    2.16
  11  -2  -6    2.31    1.35
  11   2  -6    2.29    1.90
 -11   2   6    3.59    1.44
 -11   2   6    1.53    1.84
  11   2  -6    1.80    1.53
  10  -2  -6    9.43    2.27
  10   2  -6    9.66    2.13
  10   2  -6    8.82    1.51
 -10   2   6    9.01    1.59
  10   2  -6    8.22    1.60
   9  -2  -6    6.49    2.32
   9   2  -6    1.73    1.45
  -9   2   6    3.61    1.48
   9   2  -6    0.98    2.11
   9   2  -6    0.45    1.31
   8  -2  -6   19.74    1.97
   8   2  -6   21.03    1.58
   8   2  -6   17.61    1.67
  -8   2   6   18.40    1.61
   7  -2  -6   39.42    2.69
   7   2  -6   32.51    2.21
   7   2  -6   33.56    2.25
  -7   2   6   38.86    2.24
  -6  -2   6    3.07    2.41
   6  -2  -6    1.24    2.83
  -5  -2   6    0.98    2.41
  -5  -2   6    1.01    2.22
   5  -2  -6    4.10    2.65
  -4  -2   6    6.96    2.25
   4  -2  -6   10.88    2.60
  -4  -2   6    8.86    2.59
   3  -2  -6   88.69    5.15
  -3  -2   6   71.22    4.78
  -3   2   6   77.64    4.39
   1  -2   6   62.23    4.79
   3  -2   6    1.21    2.64
   3  -2   6   -0.84    1.36
   3  -2   6    1.69    1.82
   3   2   6    6.96    3.10
   3   2   6    0.36    1.85
   3   2   6   -0.20    2.09
   3   2   6    0.76    1.49
   4  -2   6   64.88   11.81
   4  -2   6   69.84    2.76
   4  -2   6   67.35    4.53
   4   2   6   62.55    4.28
   4   2   6   65.33    6.99
   4   2   6   55.54    6.42
   4   2   6   66.07    5.18
   5  -2   6    4.60    2.40
   5  -2   6    4.65    1.57
   5  -2   6   12.68    7.08
   5   2   6   11.28    4.59
   5   2   6    6.38    2.87
   5   2   6    6.54    2.84
   5   2   6    4.48    3.97
   6  -2   6    1.51    1.62
   6  -2   6    2.90    2.47
   6   2   6   13.55    3.60
   6   2   6    8.89    6.26
   6   2   6    4.14    3.11
   6   2   6    2.51    2.78
   8  -2   6    7.69    1.59
   8  -2   6    6.53    2.19
   8   2   6    5.42    3.33
   9  -2   6   11.57    2.16
   9  -2   6   12.19    1.45
   9   2   6   16.80    3.34
  10  -2   6    0.53    1.00
  10   2   6   -0.66    1.89
  11   3  -6   29.57    2.63
  11   3  -6   38.56    2.82
  10   3  -6    3.69    2.18
  10   3  -6    1.69    1.60
 -10   3   6    0.06    2.20
  -9   3   6    2.89    2.51
   9   3  -6    6.96    1.63
   9   3  -6    9.58    2.59
   9   3  -6    4.90    1.83
  -8   3   6   10.93    2.75
   8   3  -6   16.58    2.79
   8   3  -6   18.74    1.75
   8   3  -6   20.35    2.04
   7   3  -6   55.54    2.94
  -7   3   6   60.13    4.08
   7   3  -6   65.52    3.25
  -6   3   6   41.90    3.61
   6   3  -6   40.60    2.58
   6   3  -6   44.24    2.98
  -5   3   6   10.04    2.53
  -5   3   6   12.78    1.79
   5   3  -6   14.09    1.68
   5   3  -6   15.41    1.64
   4   3  -6   17.00    1.72
   4   3  -6   20.80    1.72
  -4   3   6   21.57    2.63
  -3   3   6   18.58    2.39
   3   3  -6   26.90    2.32
  -3   3   6   28.09    2.94
   3   3  -6   25.64    2.23
  -2  -3   6   59.72    3.77
  -2   3   6   68.99    3.51
   2   3  -6   64.48    2.84
  -2   3   6   59.32    4.29
   2   3  -6   60.94    2.85
  -1  -3   6   13.36    1.90
  -1   3   6   13.12    1.78
  -1   3   6    5.61    2.44
  -1   3   6   13.86    2.26
   1   3  -6    9.89    1.39
   0  -3   6    9.47    1.91
   0   3   6    9.97    2.55
   0   3   6   10.19    1.76
   0   3  -6    9.21    1.41
   0   3   6   16.13    2.26
   1  -3   6   14.68    2.17
  -1   3  -6   14.16    1.51
   1   3   6   15.72    2.58
   1   3   6   14.89    1.93
   1   3   6   14.91    2.13
   2  -3   6   31.38    3.56
   2   3   6   29.63    2.52
  -2   3  -6   34.50    2.40
   2   3   6   20.97    3.27
   2   3   6   28.84    2.24
   2   3   6   37.37    3.61
   3  -3   6   19.88    2.68
   3   3   6   21.45    3.28
  -3   3  -6   29.39    2.47
   4  -3   6   -0.77    2.35
  -4   3  -6   -0.13    1.49
   4   3   6    9.28    3.20
   5   3   6    2.81    3.01
   6  -3   6    3.04    2.17
   6   3   6   24.04    6.27
   6   3   6    5.52    1.98
   6   3   6    4.57    3.06
   7  -3   6   19.02    2.21
   7   3   6   29.64    3.42
   7   4  -6    5.20    1.14
  -7   4   6    1.81    1.68
  -6  -4   6    1.28    1.68
  -6   4   6   -1.74    1.90
   6   4  -6   -1.54    1.35
   6   4  -6    1.15    1.15
  -5   4   6   14.38    2.29
   5   4  -6   18.41    1.55
   5   4  -6   17.31    1.32
   4   4  -6    3.35    1.27
   4   4  -6    2.25    1.12
  -4   4   6    2.14    2.05
   3   4  -6    2.03    1.24
   3   4  -6    4.71    1.14
  -3   4   6    1.53    2.04
   2   4  -6    0.56    1.11
  -2   4   6   -1.48    1.89
   2   4  -6    1.45    1.15
  -1  -4   6    0.14    2.04
  -1   4   6    4.57    1.92
   1   4  -6    4.72    1.16
   1   4  -6    2.09    1.19
   0   4   6   -0.40    1.69
   0   4  -6   -0.04    1.11
   0   4  -6    0.02    1.17
  -1   4  -6   16.33    1.40
   1   4   6   13.73    1.79
  -1   4  -6   20.18    2.01
  -2   4  -6    0.99    1.13
  -2   4  -6    2.11    1.15
  -3   4  -6    1.68    1.09
  15   0  -7   -1.18    1.15
 -15   0   7    0.99    1.03
  15   0  -7    0.44    1.48
  14   0  -7    1.20    1.37
  14   0  -7   -1.99    1.85
 -14   0   7   -0.85    1.26
  13   0  -7    0.83    1.94
 -13   0   7    2.40    1.31
  13   0  -7    0.74    1.36
  12   0  -7   -1.38    1.39
  12   0  -7    0.36    1.95
 -12   0   7   -0.35    1.25
  11   0  -7   -0.63    1.38
  11   0  -7    0.72    1.92
 -11   0   7   -0.66    1.24
  11   0  -7    3.21    1.41
  10   0  -7    0.31    1.33
  10   0  -7    0.51    1.25
 -10   0   7   -1.83    1.18
   9   0  -7    2.27    2.31
  -9   0   7   -1.82    1.79
   8   0  -7   -0.31    1.91
  -8   0   7   -0.22    1.65
   7   0  -7   -0.65    1.66
  -7   0   7   -0.83    1.45
  -6   0   7    0.64    1.31
   6   0  -7   -1.63    1.55
  -5   0   7   -0.43    1.25
   5   0  -7   -1.39    1.35
  -4   0   7   -0.58    1.30
   4   0  -7    0.81    1.29
   3   0  -7    1.63    1.16
  -3   0   7    0.39    1.32
  -2   0   7    0.16    1.29
  -1   0   7    0.75    1.32
  -1   0   7   -1.47    1.79
   0   0   7   -1.64    1.88
   0   0   7    0.22    1.65
   0   0   7    0.54    1.33
   1   0   7   -0.74    1.67
   1   0   7    1.34    1.31
   1   0   7   -3.15    2.09
   2   0   7   -0.66    1.77
   2   0   7   -4.55    2.11
   2   0   7    1.03    1.32
  -3   0  -7   -1.71    3.11
   3   0   7   -0.65    1.78
   4   0   7    6.36    4.06
   4   0   7    0.44    1.92
  -4   0  -7    1.19    3.34
   5   0   7    0.02    2.16
   5   0   7    4.74    4.32
  -5   0  -7    0.23    3.20
   5   0   7    0.18    3.30
   6   0   7   -1.07    3.74
   6   0   7   -0.64    1.68
   6   0   7   -2.75    4.18
   6   0   7   -1.17    2.24
   7   0   7   -0.26    2.44
   7   0   7   -2.07    1.73
   7   0   7    1.49    3.02
   7   0   7    1.23    5.25
   8   0   7    0.87    1.77
   8   0   7   -1.22    2.50
   8   0   7    3.67    2.44
   9   0   7   -2.23    2.37
   9   0   7   -0.45    1.70
  10   0   7   -1.41    2.40
  15  -1  -7   11.39    1.16
  15  -1  -7   11.59    1.57
 -15   1   7   11.76    1.20
  15   1  -7   10.48    1.49
  14  -1  -7    2.24    1.34
  14  -1  -7    2.01    1.81
 -14   1   7    2.85    1.25
  14   1  -7    1.98    1.78
  13  -1  -7   14.07    1.54
  13  -1  -7   16.55    2.18
  13   1  -7   16.47    1.57
  13   1  -7   15.18    2.10
 -13   1   7   12.37    1.47
  12  -1  -7   36.99    2.41
  12  -1  -7   38.20    3.33
  12   1  -7   39.59    2.38
  12   1  -7   35.29    2.86
 -12   1   7   37.22    2.44
  11  -1  -7   -1.26    2.04
  11  -1  -7    0.36    1.30
  11  -1  -7    0.68    1.43
  11   1  -7    1.18    1.82
 -11   1   7    0.90    1.41
  11   1  -7    1.03    1.39
  11   1  -7    0.67    1.37
  10  -1  -7    9.04    1.34
  10  -1  -7   10.87    1.61
  10  -1  -7    9.60    2.23
 -10   1   7   10.24    1.50
  10   1  -7   10.11    1.54
  10   1  -7   10.53    2.10
  10   1  -7    8.78    1.49
   9  -1  -7   50.85    2.56
   9  -1  -7   44.69    2.12
   9   1  -7   45.87    2.41
  -9   1   7   47.75    2.46
   9   1  -7   45.22    2.60
   8  -1  -7   28.15    3.46
  -8   1   7   23.07    2.15
  -7  -1   7   12.47    1.94
   7  -1  -7    9.02    2.77
  -7   1   7   11.86    1.72
  -6  -1   7   23.14    2.87
   6  -1  -7   26.27    2.86
  -6   1   7   20.57    1.89
  -5  -1   7  105.15    4.45
   5  -1  -7  100.78    5.51
  -5   1   7  101.32    4.56
  -4  -1   7   83.70    3.85
   4  -1  -7   80.01    4.52
  -4   1   7   78.40    3.94
  -4   1   7   81.07    4.03
  -3  -1   7   23.58    1.80
  -3  -1   7   24.94    2.87
  -3   1   7   23.60    2.11
  -3   1   7   22.99    2.82
  -2  -1   7  241.22    8.17
  -2  -1   7  229.03    8.29
   2  -1  -7  235.46   10.18
  -2   1   7  238.58    8.42
  -2   1   7  232.20    8.15
  -1  -1   7  101.34    4.76
  -1  -1   7  106.23    4.54
   1  -1  -7  111.06    5.51
  -1   1   7  102.40    4.92
   0  -1   7   11.34    2.04
   0  -1   7   12.68    1.64
   0   1   7   13.85    2.34
   1  -1   7  242.28    8.68
   1  -1   7  240.56    8.92
  -1  -1  -7  271.73   11.96
   1   1   7  236.59    9.17
   2  -1   7  215.30    8.07
   2  -1   7  212.16    7.68
   2   1   7  214.99    8.32
   3  -1   7   29.22    3.71
   3  -1   7   29.45    5.16
   3   1   7   38.27    5.14
   4  -1   7   25.29    5.33
   4  -1   7   20.14    2.63
   5  -1   7   82.62    3.14
   5  -1   7   81.48    5.22
   5  -1   7   84.99    9.34
   5  -1   7   94.76   14.16
   5   1   7   74.02    8.38
   5   1   7   80.83    5.33
   6  -1   7  113.00    3.77
   6  -1   7  127.11   11.09
   6  -1   7  115.55    6.22
   6   1   7  114.63    6.31
   6   1   7  106.51   11.76
   6   1   7  111.52   10.72
   7  -1   7    8.21    1.65
   7  -1   7    4.96    2.53
   7   1   7    9.21    2.87
   7   1   7    8.34    6.66
   7   1   7    5.78    2.82
   8  -1   7    1.91    1.61
   8  -1   7    3.34    2.32
   8   1   7    2.92    2.77
   8   1   7    2.53    1.83
   8   1   7    3.25    2.36
   9  -1   7   59.47    4.63
   9   1   7   66.91    5.32
   9   1   7   64.10    3.18
  10  -1   7   34.81    3.46
  10   1   7   32.40    2.23
  10   1   7   35.92    4.05
  14   2  -7    7.60    1.46
  13  -2  -7   -0.93    1.34
 -13   2   7   -1.63    1.29
  13   2  -7   -1.87    1.19
  13   2  -7   -0.70    1.70
 -13   2   7   -1.34    1.94
  12  -2  -7   -1.15    1.27
  12  -2  -7   -0.34    1.91
 -12   2   7    1.50    1.35
  12   2  -7   -0.67    1.73
  12   2  -7   -0.18    1.40
  11  -2  -7    0.74    2.10
  11   2  -7    2.88    1.96
  11   2  -7   -0.67    1.44
 -11   2   7    1.39    1.44
  11   2  -7    0.60    1.51
  10  -2  -7   -1.03    2.14
  10   2  -7   -0.88    1.39
  10   2  -7   -1.18    1.89
  10   2  -7   -1.23    1.44
 -10   2   7   -0.05    1.45
   9  -2  -7   17.30    1.88
   9   2  -7   14.79    1.55
   9   2  -7   15.16    1.72
  -9   2   7   16.70    1.70
   8  -2  -7    2.43    1.61
  -8   2   7    2.48    1.41
   8   2  -7    0.56    1.36
   8   2  -7    2.34    1.22
   7  -2  -7    2.22    1.50
  -7   2   7    1.76    1.36
   7   2  -7    2.33    1.22
   7   2  -7    2.17    1.19
   6  -2  -7   20.61    3.22
   6  -2  -7   17.24    1.70
   6   2  -7   17.78    1.47
  -6   2   7   16.51    1.50
  -5  -2   7    5.92    2.37
   5  -2  -7    9.07    2.79
  -4  -2   7   20.28    3.00
  -3  -2   7   -0.02    2.23
  -1  -2   7   72.46    4.65
  -1  -2   7   68.86    4.70
   1  -2   7    0.54    2.45
   2  -2   7    2.49    1.34
   2  -2   7    0.57    1.69
   2   2   7    1.15    1.82
   2   2   7    0.44    1.90
   2   2   7    0.28    1.35
   2   2   7    4.88    3.17
   3  -2   7    1.13    1.93
   3  -2   7   -4.95    5.86
   3  -2   7    0.89    1.37
   3   2   7    3.62    1.51
   3   2   7    6.05    3.44
   3   2   7   -0.62    2.13
   3   2   7    0.53    2.00
   4  -2   7   23.08    7.13
   4  -2   7    8.84    1.59
   4  -2   7    9.88    2.40
   4   2   7   14.58    4.48
   4   2   7   11.96    2.94
   4   2   7    9.60    2.65
   5  -2   7    2.49    2.40
   5  -2   7    0.83    1.55
   5   2   7    3.61    2.93
   5   2   7    5.69    5.79
   5   2   7   -0.26    4.36
   5   2   7   -2.38    3.01
   6  -2   7    7.02    2.51
   6  -2   7    8.37    1.62
   6   2   7    8.10    3.39
   6   2   7    4.74    2.96
   8  -2   7   -0.84    2.04
   8  -2   7    1.41    1.36
   8   2   7   -3.79    3.34
   9  -2   7   -1.38    1.06
   9  -2   7   -1.66    1.76
   9   2   7    0.39    2.54
  11   3  -7    0.92    1.43
 -11   3   7    0.79    1.82
  11   3  -7    1.75    1.73
  10   3  -7    1.60    2.09
  10   3  -7    0.64    1.55
 -10   3   7    2.33    1.42
 -10   3   7    0.37    2.18
   9   3  -7   -0.08    1.71
  -9   3   7   -0.09    2.42
  -9   3   7    3.00    1.57
   9   3  -7    4.29    1.58
   8   3  -7    5.74    1.50
  -8   3   7    8.14    1.75
   8   3  -7    5.22    1.72
  -8   3   7    2.15    2.56
   7   3  -7    3.26    1.54
  -7   3   7    3.69    1.74
   7   3  -7    4.38    1.49
  -7   3   7    1.76    2.64
   6   3  -7   19.73    1.72
  -6   3   7   14.00    2.76
   6   3  -7   17.63    1.80
   5   3  -7   11.87    1.59
   5   3  -7   11.49    1.65
  -5   3   7   12.03    2.58
  -5   3   7   11.25    1.86
   4   3  -7    5.11    1.45
  -4   3   7    5.96    1.70
   4   3  -7    5.04    1.51
  -4   3   7    4.45    2.35
   3   3  -7    2.16    1.29
  -3   3   7   -2.23    2.11
   3   3  -7    4.25    1.44
  -3   3   7    3.31    2.18
  -3   3   7    5.81    1.71
  -2  -3   7    7.70    1.83
  -2   3   7    6.62    2.12
  -2   3   7    2.89    2.44
   2   3  -7    6.15    1.30
  -1  -3   7    7.51    1.85
   1   3  -7    5.44    1.31
  -1   3   7    3.19    2.50
  -1   3   7    8.43    2.10
   0  -3   7   -3.68    2.36
   0  -3   7    0.41    1.80
   0   3   7   -0.85    1.69
   0   3   7    0.71    2.49
   0   3   7   -1.51    1.93
   0   3  -7    1.14    1.26
   1  -3   7   -1.85    1.90
  -1   3  -7    0.17    1.22
   1   3   7    2.80    2.45
   1   3   7   -0.59    1.75
   1   3   7   -1.65    1.80
   2  -3   7   37.40    3.85
  -2   3  -7   37.74    2.55
   2   3   7   46.68    3.81
   2   3   7   38.40    4.26
   3  -3   7   -1.45    2.31
  -3   3  -7    3.45    1.49
   3   3   7    6.50    2.88
   3   3   7    6.08    2.33
   4  -3   7    0.34    2.38
   4   3   7   14.88    3.32
   6  -3   7    4.29    2.24
   6   3   7    4.29    1.73
   6   3   7    5.66    2.83
   6   3   7   23.51    6.23
  -7   4   7   -1.15    1.56
   7   4  -7   -1.05    1.08
  -6  -4   7    3.79    1.83
   6   4  -7    0.97    1.12
  -6   4   7    0.55    1.82
   6   4  -7    0.14    1.29
  -5  -4   7   10.03    2.10
   5   4  -7   13.84    1.41
  -5   4   7    9.94    2.04
   5   4  -7   14.92    1.21
  -4  -4   7   -2.05    2.01
   4   4  -7    0.62    1.04
  -4   4   7    2.19    2.01
   4   4  -7   -0.04    1.18
  -3  -4   7   -2.71    1.96
  -3   4   7   -1.39    1.92
   3   4  -7    1.14    1.04
   3   4  -7   -1.17    1.12
  -2  -4   7    2.21    2.07
   2   4  -7    2.50    1.07
   2   4  -7    3.29    1.17
  -2   4   7    3.60    1.87
  -1  -4   7    0.72    1.92
   1   4  -7    3.05    1.07
   1   4  -7    1.54    1.14
  -1   4   7    3.48    1.71
   0   4  -7    9.46    1.16
   0   4  -7    9.12    1.21
  -1   4  -7    0.28    1.07
  -1   4  -7   -0.60    1.04
  -2   4  -7    1.29    1.03
  -2   4  -7    1.44    1.06
  15   0  -8    0.29    1.41
 -15   0   8    0.96    0.98
  15   0  -8    0.53    1.12
  14   0  -8   28.11    2.24
 -14   0   8   26.74    2.01
  14   0  -8   25.18    2.85
 -13   0   8    2.10    1.27
  13   0  -8    0.75    1.30
  13   0  -8    1.98    1.94
 -12   0   8    0.12    1.21
  12   0  -8   -0.04    1.39
  12   0  -8    3.02    1.96
  12   0  -8    1.40    1.43
  11   0  -8   89.06    3.42
  11   0  -8   85.59    3.07
 -11   0   8   77.50    2.94
  10   0  -8   26.47    1.85
  10   0  -8   25.51    2.21
   9   0  -8   27.02    2.32
  -9   0   8   35.46    3.93
  -8   0   8    5.55    1.83
  -7   0   8   11.69    1.78
   6   0  -8   62.97    4.03
  -6   0   8   71.05    3.80
   5   0  -8    7.29    1.62
  -5   0   8    6.52    1.59
   4   0  -8   22.81    2.57
  -4   0   8   24.79    2.94
   3   0  -8   70.39    3.80
  -3   0   8   80.14    3.87
  -2   0   8  234.81    8.24
  -1   0   8  188.82    6.88
   0   0   8   64.76    3.62
   0   0   8   68.32    3.65
   1   0   8    0.55    1.41
   1   0   8    2.01    1.77
   2   0   8   77.65    4.29
   2   0   8   74.87    3.83
   3   0   8  130.63    5.68
  -3   0  -8  130.70    6.91
  -4   0  -8   10.57    3.44
   4   0   8    7.46    4.65
   4   0   8    4.69    2.22
   4   0   8    6.69    3.55
   5   0   8    6.69    2.42
   5   0   8   10.80    3.93
   5   0   8   10.25    1.73
   5   0   8    8.73    5.54
   6   0   8   29.53    5.30
   6   0   8   27.57    5.11
   6   0   8   32.64    2.16
   6   0   8   26.94    3.09
   7   0   8  109.51    6.45
   7   0   8  122.05    4.25
   7   0   8  118.32   10.17
   8   0   8   11.34    2.62
   8   0   8    8.36    2.44
   9   0   8    2.90    2.65
  10   0   8    8.21    2.21
  15  -1  -8    2.66    1.02
  15  -1  -8    0.58    1.26
  15   1  -8    2.89    1.33
  14  -1  -8    6.31    1.86
  14  -1  -8   11.26    1.44
  14   1  -8   10.23    1.40
 -14   1   8   10.22    1.34
  14   1  -8   13.02    2.06
  13  -1  -8    4.77    1.33
  13  -1  -8    2.49    2.03
 -13   1   8    6.23    1.36
  13   1  -8    3.88    1.92
  13   1  -8    6.00    1.43
  12  -1  -8    0.65    1.31
  12  -1  -8    3.40    2.11
  12  -1  -8    2.98    1.57
  12   1  -8    3.38    1.35
  12   1  -8    1.21    1.32
 -12   1   8    2.51    1.32
  12   1  -8    2.32    1.80
  11  -1  -8    0.70    1.25
  11  -1  -8    2.88    1.51
  11   1  -8    1.27    1.38
  11   1  -8    1.11    1.35
 -11   1   8    2.23    1.31
  10  -1  -8    1.18    1.20
  10  -1  -8    1.16    1.40
  10   1  -8    0.74    1.43
  10   1  -8    2.44    1.35
 -10   1   8   -0.52    1.26
   9  -1  -8   26.62    1.90
   9  -1  -8   33.41    2.23
   9   1  -8   25.57    2.16
  -9   1   8   27.27    2.07
   9   1  -8   26.21    2.20
  -8   1   8    0.16    1.65
  -7  -1   8   35.78    3.88
   7  -1  -8   35.99    3.66
  -7   1   8   34.72    3.37
   6  -1  -8    0.43    2.31
  -6  -1   8    0.51    1.69
  -6   1   8    2.08    1.63
  -5  -1   8    1.09    1.58
   5  -1  -8    2.72    2.06
  -5   1   8    1.23    1.57
   4  -1  -8    9.43    2.01
  -4  -1   8    3.47    1.50
  -4   1   8    2.67    1.72
  -4   1   8    3.16    1.68
  -3  -1   8   21.47    1.93
  -3   1   8   26.89    2.32
  -3   1   8   24.05    2.05
  -1  -1   8   36.54    3.18
  -1  -1   8   32.88    3.48
  -1   1   8   30.63    3.49
   0  -1   8   25.91    2.51
   0  -1   8   21.15    2.07
   0   1   8   22.64    2.56
  -2  -1  -8   83.14    9.70
   2   1   8   56.51   10.12
   3  -1   8    0.86    2.09
  -3  -1  -8   25.57    7.51
   3   1   8    1.39    4.21
   4  -1   8    5.36    2.25
   4  -1   8    5.21    1.50
   4  -1   8    4.07    4.20
   4   1   8    7.70    3.72
   4   1   8    4.63    2.36
   4   1   8    4.62    2.67
   5  -1   8    1.61    1.52
   5  -1   8   -0.51    4.42
   5  -1   8   -0.82    2.30
   5   1   8    0.61    2.50
   5   1   8    0.40    4.13
   6  -1   8    2.34    2.48
   6  -1   8    0.30    1.49
   6   1   8    0.06    5.79
   6   1   8    1.70    2.75
   6   1   8   -0.05    3.98
   7  -1   8   13.89    2.61
   7  -1   8   10.19    1.62
   7   1   8   12.89    3.10
   7   1   8    8.57    2.84
   8  -1   8    4.22    2.33
   8   1   8    5.81    3.17
   8   1   8    3.38    2.26
   9  -1   8   18.41    2.47
   9   1   8   18.65    3.26
 -13   2   8    2.09    1.91
  13   2  -8    8.22    1.83
 -13   2   8    6.32    1.41
  12   2  -8    2.85    1.94
 -12   2   8    1.83    1.46
  11  -2  -8    0.27    2.10
  11   2  -8    0.62    2.02
  11   2  -8    0.16    1.45
  11   2  -8    1.07    1.48
 -11   2   8   -1.25    1.46
  10   2  -8   13.91    1.62
  10   2  -8   13.18    1.73
 -10   2   8   13.16    1.72
   9  -2  -8    7.21    1.73
   9   2  -8    7.35    1.56
  -9   2   8    6.96    1.65
   9   2  -8    7.82    1.41
   8  -2  -8    1.89    1.57
  -8   2   8    2.70    1.51
   8   2  -8    2.04    1.25
   8   2  -8    2.60    1.41
   7  -2  -8   26.04    2.06
  -7   2   8   24.53    1.70
   7   2  -8   24.00    1.59
   7   2  -8   20.06    1.98
   6  -2  -8   14.24    1.55
   6   2  -8   14.22    1.42
   6   2  -8   15.19    1.32
  -6   2   8   16.07    1.45
   5  -2  -8   29.31    2.10
   5   2  -8   27.29    2.20
  -5   2   8   31.27    2.74
   5   2  -8   27.96    1.85
  -5   2   8   27.04    2.04
  -4  -2   8    2.37    2.30
   4  -2  -8    7.32    2.48
   0  -2   8    6.20    1.80
   0  -2   8    7.11    2.09
   0  -2   8   12.43    2.88
   0   2   8    4.85    2.04
   0   2   8    7.71    2.13
   0   2   8    8.79    1.41
   1  -2   8    6.87    1.84
   1   2   8    9.46    3.36
   1   2   8    4.68    1.97
   1   2   8    7.28    1.37
   1   2   8    5.67    2.13
   2  -2   8   31.97    2.19
   2  -2   8   28.88    3.28
   2   2   8   26.97    3.33
   2   2   8   23.66    4.19
   2   2   8   28.71    2.29
   2   2   8   30.59    3.30
   3  -2   8   48.29    4.01
   3  -2   8   52.57    2.53
   3   2   8   48.46    8.46
   3   2   8   50.57    4.00
   3   2   8   46.33    3.86
   4  -2   8   12.25    1.61
   4  -2   8   13.42    2.54
   4   2   8   14.93    5.60
   4   2   8   11.32    2.86
   5  -2   8    0.89    1.46
   5  -2   8    0.66    2.37
   5   2   8    4.07    3.04
   5   2   8    2.73    3.07
   6  -2   8   14.43    2.49
   6  -2   8   11.03    1.51
   6   2   8    5.14    3.38
   6   2   8   15.31    3.32
   7  -2   8   10.65    1.49
   7  -2   8   12.36    2.41
   7   2   8   13.04    3.32
   7   2   8    8.41    2.35
   8  -2   8    6.46    2.03
   8   2   8    8.29    3.00
  11   3  -8   16.85    1.47
 -11   3   8   19.68    1.83
  11   3  -8   15.20    2.04
  10   3  -8   12.40    1.67
  10   3  -8   10.96    1.61
 -10   3   8    5.01    2.20
 -10   3   8    7.73    1.49
  -9   3   8    3.76    1.57
   9   3  -8    5.81    1.61
  -9   3   8    3.14    2.46
   9   3  -8    5.02    1.75
   8   3  -8   -0.36    1.66
   8   3  -8    0.19    1.43
  -8   3   8    0.53    1.64
  -8   3   8    0.88    2.55
  -7  -3   8    4.37    1.93
   7   3  -8    4.68    1.56
  -7   3   8    4.43    1.74
  -7   3   8    0.81    2.54
   7   3  -8    5.68    1.45
  -6  -3   8   23.51    3.12
  -6   3   8   27.64    3.33
   6   3  -8   26.32    1.79
  -6   3   8   25.15    2.04
   6   3  -8   24.15    1.96
   5   3  -8   11.19    1.64
  -5   3   8   12.15    2.53
   5   3  -8   14.94    1.61
  -4   3   8    7.82    2.26
   4   3  -8    6.89    1.50
  -4   3   8    1.75    2.23
   4   3  -8    5.93    1.43
  -3   3   8    7.57    1.72
   3   3  -8    4.62    1.32
  -3   3   8   -2.18    2.29
  -3   3   8    3.94    2.04
   3   3  -8    6.48    1.46
  -2  -3   8    3.54    1.80
  -2  -3   8    2.81    2.32
  -2   3   8    5.53    2.08
   2   3  -8    5.40    1.29
  -2   3   8    1.98    2.46
  -1  -3   8   14.30    2.63
  -1  -3   8   15.63    2.09
   1   3  -8   13.36    1.41
  -1   3   8    9.48    3.11
  -1   3   8   14.78    2.11
  -1   3   8   18.84    1.86
  -1   3   8   18.31    2.90
   0  -3   8   -1.29    1.80
   0  -3   8   -3.29    2.45
   0   3   8    2.10    2.61
   0   3   8   -3.36    2.61
   0   3  -8   -0.34    1.24
   0   3   8   -0.88    1.64
   1  -3   8   -1.76    1.92
   1   3   8   -2.17    1.71
   1   3   8   -5.97    2.54
   1   3   8    4.82    2.48
  -1   3  -8    0.12    1.29
   2  -3   8    3.37    2.19
   2   3   8    8.85    2.36
   2   3   8    8.35    2.84
   3  -3   8   14.03    2.55
   3   3   8   25.71    3.31
   6  -3   8    3.32    1.81
   6   3   8    2.15    5.44
   6   4  -8    3.14    1.15
  -6   4   8    3.51    1.81
   6   4  -8    4.03    1.08
  -5  -4   8    3.12    1.79
   5   4  -8    3.41    1.14
   5   4  -8    5.45    1.08
  -5   4   8    2.48    1.82
  -4  -4   8    0.93    1.93
   4   4  -8    2.15    1.09
  -4   4   8    4.26    1.80
   4   4  -8    2.44    1.04
  -3  -4   8    0.49    1.91
  -3   4   8    0.14    1.70
   3   4  -8    0.38    1.06
   3   4  -8    3.56    1.03
  -2  -4   8    0.39    1.89
   2   4  -8    0.14    1.02
   2   4  -8    1.08    1.02
  -1  -4   8   -0.29    1.65
   1   4  -8    1.38    1.03
   1   4  -8    1.81    1.03
   0   4  -8    0.17    1.01
   0   4  -8    0.38    1.03
  -1   4  -8    0.06    1.01
  15   0  -9   -0.21    1.36
  15   0  -9    0.05    1.04
  14   0  -9   -1.22    1.87
  14   0  -9   -0.51    1.25
  13   0  -9   -0.17    1.22
  13   0  -9    1.08    1.85
  13   0  -9    1.36    1.42
  12   0  -9    0.13    1.38
  12   0  -9   -0.12    1.31
  11   0  -9   -0.08    1.31
  11   0  -9    0.86    1.35
  10   0  -9   -2.54    1.33
  10   0  -9    0.06    1.22
   9   0  -9   -0.62    1.33
   9   0  -9   -0.25    1.06
  -8   0   9   -0.25    1.84
  -7   0   9   -1.28    1.70
  -6   0   9   -1.03    1.64
  -5   0   9   -1.31    1.60
  -4   0   9   -0.93    1.57
  -3   0   9    0.32    1.50
  -2   0   9   -0.43    1.50
  -1   0   9   -1.37    1.46
   0   0   9   -0.19    1.51
   1   0   9   -0.70    1.52
   2   0   9    6.68    4.76
   2   0   9   -2.31    2.04
   3   0   9    0.68    3.41
   3   0   9   -4.66    4.93
   3   0   9    0.37    2.06
   4   0   9   -2.45    3.77
   4   0   9   -0.80    2.27
   5   0   9   -6.25    6.20
   5   0   9   -1.82    4.32
   5   0   9   -0.03    2.47
   6   0   9    0.31    4.71
   6   0   9    1.93    2.62
   7   0   9    0.78    2.59
   7   0   9   -1.22    3.06
   8   0   9    0.98    2.71
   9   0   9   -2.43    2.41
  14  -1  -9   -0.37    1.24
  14  -1  -9   -0.31    1.62
  14   1  -9    1.38    1.23
 -14   1   9    2.26    1.21
  14   1  -9    1.12    1.65
  13  -1  -9    4.91    1.59
  13  -1  -9    2.66    1.82
  13  -1  -9    4.61    1.35
  13   1  -9    4.02    1.35
  13   1  -9    3.89    1.79
 -13   1   9    4.66    1.33
  13   1  -9    3.13    1.42
  12  -1  -9    2.54    1.57
  12  -1  -9    0.51    1.27
  12   1  -9    2.28    1.27
 -12   1   9    3.41    1.29
  12   1  -9    3.51    1.38
  11  -1  -9   13.07    1.71
  11  -1  -9    8.89    1.35
  11   1  -9   10.26    1.54
 -11   1   9   10.45    1.44
  11   1  -9    9.99    1.49
  10  -1  -9    1.99    1.37
  10  -1  -9    0.92    1.20
  10   1  -9    0.24    1.24
 -10   1   9    0.87    1.26
  10   1  -9   -0.27    1.40
   9  -1  -9    1.07    1.08
   9  -1  -9    2.43    1.24
  -9   1   9    1.21    1.23
   9   1  -9    4.14    1.41
   9   1  -9    1.52    1.19
   8  -1  -9    0.48    1.22
  -8   1   9    1.60    1.15
   8   1  -9    1.43    1.13
  -7  -1   9   25.51    2.61
   7  -1  -9   18.15    3.37
  -7   1   9   21.38    2.20
  -6  -1   9   14.05    2.17
   6  -1  -9    8.43    2.62
  -6   1   9    8.15    1.83
   5  -1  -9    7.89    2.31
  -5  -1   9    6.78    1.84
  -5   1   9    4.81    1.86
  -4  -1   9   -0.22    1.68
  -4   1   9    1.72    1.78
  -4   1   9    0.12    1.76
  -3  -1   9   25.47    2.15
  -3   1   9   21.31    2.24
  -3   1   9   21.60    2.07
   0   1   9   41.19    5.28
   1  -1   9    6.21    2.21
   1   1   9   14.03    4.40
   2  -1   9    8.38    1.43
   2  -1   9    6.92    1.97
   2  -1   9    6.85    5.73
   2  -1   9    8.39    2.21
   2   1   9    8.05    2.18
   2   1   9    4.85    1.31
   2   1   9    1.85    5.22
   3  -1   9    3.74    4.22
   3  -1   9    1.21    1.38
   3  -1   9    3.13    2.12
   3   1   9    1.16    2.48
   3   1   9    6.31    3.62
   4  -1   9   12.75    1.55
   4  -1   9   12.72    2.55
   4  -1   9   14.85    4.96
   4   1   9   10.89    2.97
   4   1   9   14.42    2.68
   4   1   9   12.25    4.31
   5  -1   9    0.57    2.43
   5  -1   9    1.52    5.88
   5  -1   9   -0.29    1.38
   5   1   9   -1.30    5.25
   5   1   9    1.00    2.76
   6  -1   9    6.26    2.50
   6  -1   9    3.53    1.52
   6   1   9    3.55    4.53
   6   1   9    6.34    3.03
   7  -1   9    2.04    2.34
   7   1   9   -0.74    3.17
   7   1   9   -0.06    2.79
   8  -1   9    3.87    2.30
   8   1   9    4.37    3.41
   8   1   9    1.91    1.89
   9  -1   9    1.62    1.78
   9   1   9    0.25    2.40
  13   2  -9   10.84    1.81
 -13   2   9   11.63    1.38
 -12  -2   9    7.36    1.58
 -12   2   9   11.68    1.59
  12   2  -9    9.04    1.46
 -11   2   9   25.03    1.90
  11   2  -9   29.71    2.46
  10  -2  -9   18.95    1.86
  10   2  -9   18.69    1.71
 -10   2   9   19.24    1.88
   9  -2  -9    9.07    1.72
   9   2  -9    7.35    1.61
   9   2  -9    8.36    1.56
  -9   2   9    7.54    1.69
   9   2  -9    8.96    1.49
   8  -2  -9   27.89    2.60
   8   2  -9   30.77    1.76
  -8   2   9   30.43    2.43
   8   2  -9   30.11    2.36
   7  -2  -9   16.86    1.71
  -7  -2   9   24.28    2.63
  -7   2   9   17.36    1.62
   7   2  -9   19.71    1.64
   7   2  -9   20.25    1.54
   6  -2  -9    3.70    1.33
  -6  -2   9    4.97    1.68
  -6   2   9    7.55    2.19
   6   2  -9    4.56    1.28
   6   2  -9    4.63    1.16
  -6   2   9    5.00    1.35
   5  -2  -9    8.20    1.26
  -5  -2   9    9.48    1.86
   5   2  -9   10.28    1.21
   5   2  -9   11.40    1.42
  -5   2   9   10.43    1.34
  -5   2   9   10.35    2.08
  -4  -2   9   22.00    2.71
  -4   2   9   16.16    1.45
   4   2  -9   17.35    1.73
  -4   2   9   16.38    2.25
  -4   2   9   20.04    2.08
  -3  -2   9   21.48    2.78
  -3   2   9   19.00    1.49
  -3   2   9   19.61    2.43
  -2  -2   9    3.31    1.96
  -2  -2   9    2.18    1.89
  -2   2   9    4.93    2.09
  -2   2   9    3.66    2.20
  -2   2   9    6.65    1.28
  -1  -2   9    7.49    2.23
  -1  -2   9   10.24    1.93
  -1   2   9    4.61    2.68
  -1   2   9    8.29    1.43
  -1   2   9    8.15    2.23
  -1   2   9    7.58    2.19
   0  -2   9   27.47    3.05
   0  -2   9   27.08    3.54
   0   2   9   24.08    2.63
   0   2   9   26.62    2.15
   0   2   9   27.51    3.21
   1  -2   9   16.34    2.14
   1   2   9   15.29    2.47
   1   2   9   11.74    2.41
   1   2   9   17.59    1.56
   1   2   9   11.74    4.04
   2  -2   9    5.13    2.05
   2   2   9    6.78    2.40
   2   2   9    5.71    1.53
   2   2   9    2.80    2.18
   2   2   9    5.19    4.34
   3  -2   9    9.48    2.31
   3   2   9    7.71    2.41
   3   2   9    8.22    2.71
   3   2   9    5.13    5.45
   4  -2   9   13.68    2.50
   4   2   9   10.00    2.81
   5  -2   9   12.37    2.43
   5   2   9   13.99    3.30
   6  -2   9   20.04    2.65
   6   2   9   18.50    3.05
   7  -2   9   11.59    2.28
   7   2   9   11.87    2.96
 -11  -3   9    1.56    1.27
 -11   3   9   -0.02    1.53
 -10   3   9    2.79    1.37
  10   3  -9    2.35    1.45
  10   3  -9    1.85    1.36
 -10   3   9    1.69    2.09
  -9   3   9    1.60    2.39
   9   3  -9    1.02    1.63
   9   3  -9    1.11    1.51
  -9   3   9    1.53    1.47
  -8  -3   9    1.83    1.99
   8   3  -9   -0.32    1.41
  -8   3   9   -1.12    2.51
   8   3  -9   -0.55    1.55
  -8   3   9   -0.13    1.51
  -7  -3   9    2.30    1.95
   7   3  -9    3.44    1.38
  -7   3   9    3.45    2.49
  -7   3   9    1.36    1.58
   7   3  -9    2.35    1.56
  -6  -3   9   -0.65    1.90
   6   3  -9   -1.48    1.50
  -6   3   9   -1.39    1.60
  -6   3   9    0.93    2.37
   6   3  -9   -0.49    1.37
  -5  -3   9    1.33    2.01
  -5   3   9   -0.08    2.27
   5   3  -9   -0.25    1.42
  -5   3   9   -1.87    1.56
   5   3  -9    0.27    1.36
  -4  -3   9    0.59    2.06
   4   3  -9    0.02    1.33
   4   3  -9   -0.83    1.35
  -4   3   9    0.66    1.94
  -4   3   9   -1.13    1.52
  -3  -3   9    1.09    2.13
  -3   3   9    2.76    1.91
  -3   3   9   -2.96    2.40
   3   3  -9    3.10    1.31
   3   3  -9    3.06    1.34
  -2  -3   9    0.22    1.80
  -2  -3   9   -0.41    2.23
  -2   3   9    1.53    1.52
   2   3  -9   -1.29    1.29
  -2   3   9   -0.17    2.58
   2   3  -9    2.30    1.31
  -1  -3   9   -2.27    2.42
  -1  -3   9   -0.97    1.74
  -1   3   9   -6.22    3.52
  -1   3   9    1.96    1.57
   1   3  -9   -0.20    1.24
  -1   3   9   -1.21    2.59
  -1   3   9    4.16    2.66
   0  -3   9   -2.51    1.80
   0  -3   9   -2.06    2.60
   0   3   9   -2.35    2.54
   0   3   9    4.47    2.61
   0   3   9    0.67    1.55
   0   3  -9   -0.46    1.26
   1  -3   9   -3.26    1.90
   1   3   9    0.29    1.55
   1   3   9   -1.33    2.53
   2   3   9    5.68    2.67
   2   3   9    9.32    2.39
   3   3   9    6.08    2.32
   5   4  -9    7.08    1.03
  -4  -4   9   13.80    1.97
   4   4  -9   22.73    1.55
   4   4  -9   19.26    1.62
  -3  -4   9    5.65    1.86
   3   4  -9    4.54    0.99
   3   4  -9    5.07    0.99
   2   4  -9    2.41    0.96
   2   4  -9    3.30    1.01
  15   0 -10   12.85    1.65
  15   0 -10   14.52    1.11
  14   0 -10    9.66    2.05
  14   0 -10   10.02    1.52
  14   0 -10   10.38    1.30
  13   0 -10   18.72    1.69
  13   0 -10   19.91    1.53
  12   0 -10    3.71    1.38
  12   0 -10    3.65    1.30
  11   0 -10    3.02    1.35
  11   0 -10    5.03    1.37
  10   0 -10   19.18    1.60
  10   0 -10   18.09    1.55
   9   0 -10   34.52    2.16
   9   0 -10   32.78    2.21
   8   0 -10   69.29    2.67
   8   0 -10   72.78    2.69
  -7   0  10  119.15    5.55
  -6   0  10  198.29    7.72
  -5   0  10   34.63    3.66
  -4   0  10   21.84    2.22
  -3   0  10    8.00    1.83
  -2   0  10   18.65    2.05
  -1   0  10  170.06    6.62
   0   0  10   54.89   10.46
   0   0  10   31.70    3.35
   1   0  10   62.18   11.49
   1   0  10   44.89    3.78
   2   0  10   63.91   12.78
   3   0  10   21.77    4.49
   3   0  10   35.80    4.06
   4   0  10    0.80    4.60
   4   0  10    3.40    2.57
   5   0  10    3.79    2.82
   6   0  10   11.89    3.06
   6   0  10    4.36    5.53
   7   0  10   26.35    4.15
   7   0  10   41.99    5.39
   8   0  10   12.01    2.91
  14  -1 -10    2.37    1.63
  14  -1 -10   -1.79    1.17
 -14   1  10    0.00    1.16
  14   1 -10    0.41    1.15
  13  -1 -10   -1.17    1.25
  13  -1 -10   -1.30    1.46
 -13   1  10    2.34    1.32
  13   1 -10   -1.14    1.27
  13   1 -10   -0.89    1.31
  12  -1 -10    1.22    1.43
  12  -1 -10    1.51    1.27
  12   1 -10   -0.26    1.29
 -12   1  10    3.36    1.33
  12   1 -10    2.56    1.23
  11  -1 -10    0.23    1.19
  11  -1 -10   -0.64    1.40
  11   1 -10    1.86    1.36
 -11   1  10   -0.51    1.27
  11   1 -10   -0.38    1.22
  10  -1 -10   23.62    1.93
 -10  -1  10   25.56    2.68
  10  -1 -10   26.89    2.37
  10   1 -10   29.00    1.84
  10   1 -10   26.50    2.14
 -10   1  10   27.38    2.16
   9  -1 -10   17.85    1.55
  -9  -1  10   21.98    2.24
   9   1 -10   22.05    1.72
   9   1 -10   20.78    1.69
  -9   1  10   19.09    1.56
   8  -1 -10   11.80    1.36
  -8  -1  10   12.92    1.99
   8   1 -10   12.91    1.35
  -8   1  10   12.88    1.41
   7  -1 -10   -0.15    1.03
  -7  -1  10   -1.30    1.69
  -7   1  10   -0.52    1.18
   7   1 -10    1.28    1.02
   6  -1 -10   -0.88    2.63
  -6  -1  10    3.41    2.04
  -6   1  10    1.72    1.86
   5  -1 -10    4.20    2.50
  -5  -1  10   -0.87    1.86
  -5   1  10    0.56    1.95
  -4  -1  10   14.18    2.07
  -4   1  10   13.35    2.07
  -1   1  10  119.24   11.43
   0   1  10   57.42   11.44
   1  -1  10    4.65    4.95
   1  -1  10    0.45    1.77
   1   1  10   -1.01    1.22
   1   1  10    2.39    2.03
   1   1  10    1.03    2.02
   2  -1  10    0.34    2.01
   2   1  10    1.24    3.77
   2   1  10    1.35    2.32
   2   1  10   -1.99    2.02
   3  -1  10    6.84    5.22
   3  -1  10    8.42    2.35
   3   1  10    2.31    4.33
   3   1  10    6.84    2.73
   4  -1  10   -0.67    2.44
   4   1  10    2.76    2.88
   4   1  10    2.16    2.85
   5  -1  10    3.03    2.53
   5   1  10    0.65    2.80
   6  -1  10    9.26    2.61
   6   1  10    8.02    3.06
   6   1  10   -7.16    5.11
   7  -1  10    8.23    2.65
   7   1  10    6.42    3.16
   7   1  10    4.43    2.50
   8  -1  10    6.39    2.03
   8   1  10    9.82    2.83
 -13   2  10    3.66    1.23
 -13   2  10   -0.02    1.60
 -12  -2  10   18.17    2.32
 -12   2  10   22.33    1.66
 -12   2  10   12.15    2.31
  12   2 -10   21.59    1.59
 -11  -2  10   17.37    1.93
  11   2 -10   22.17    1.66
  11   2 -10   17.97    1.60
 -11   2  10   20.01    1.75
  10  -2 -10   25.91    2.60
  10   2 -10   27.13    2.50
  10   2 -10   31.16    2.04
 -10   2  10   28.11    1.96
   9  -2 -10   13.06    1.79
  -9   2  10   13.35    1.74
   9   2 -10   15.24    1.73
   9   2 -10   13.43    1.68
   8  -2 -10    0.97    1.39
   8   2 -10   -0.72    1.30
  -8   2  10    1.09    1.51
   7  -2 -10   13.60    1.62
  -7  -2  10   14.17    2.02
  -7   2  10   12.48    1.57
  -7   2  10   10.59    2.40
   7   2 -10   10.41    1.37
   6  -2 -10    2.68    1.28
  -6  -2  10    3.39    1.82
  -6   2  10    3.17    1.39
   6   2 -10    1.47    1.15
  -6   2  10    3.07    2.10
  -5  -2  10   31.24    3.06
  -5   2  10   32.97    2.66
  -5   2  10   28.90    2.20
   5   2 -10   29.06    1.97
   5   2 -10   29.29    2.38
  -4  -2  10   26.18    3.07
  -4  -2  10   24.52    3.21
  -4   2  10   22.64    2.11
   4   2 -10   21.17    1.68
  -4   2  10   22.98    2.45
  -3  -2  10   19.67    2.42
  -3  -2  10   23.76    2.58
  -3   2  10   19.57    2.57
  -3   2  10   22.63    2.06
  -3   2  10   19.13    2.52
  -2  -2  10   51.74    3.93
  -2  -2  10   45.60    3.83
  -2   2  10   52.58    3.71
  -2   2  10   50.39    2.49
  -2   2  10   50.91    3.96
  -1  -2  10    9.65    2.03
  -1  -2  10    7.39    2.39
  -1   2  10    8.77    2.35
  -1   2  10    1.86    2.61
  -1   2  10    6.63    2.38
  -1   2  10    8.16    1.43
   0  -2  10   -0.37    2.29
   0  -2  10    3.47    1.92
   0   2  10    2.35    2.32
   0   2  10    0.85    1.40
   0   2  10   -2.81    2.88
   0   2  10    1.15    2.17
   1  -2  10    8.37    2.10
   1   2  10    2.64    2.30
   1   2  10    1.68    4.90
   1   2  10    7.11    2.40
   1   2  10    4.61    1.50
   2  -2  10    7.90    2.24
   2   2  10    5.40    2.47
   2   2  10    2.30    2.29
   2   2  10    0.74    7.10
   3   2  10   20.57    2.86
   3   2  10   17.97    2.66
   4  -2  10   10.73    2.41
   4   2  10    4.87    2.78
   5  -2  10    9.22    2.45
   5   2  10   12.91    3.12
   6  -2  10   19.35    2.47
   6   2  10   12.60    3.19
   7  -2  10   21.76    2.65
 -11   3  10    3.24    1.76
 -10  -3  10   -0.46    1.42
  10   3 -10    1.62    1.14
  10   3 -10    1.31    1.36
 -10   3  10    0.47    1.27
 -10   3  10   -1.59    1.89
  -9  -3  10   18.99    2.02
  -9   3  10   12.66    2.36
  -9   3  10   19.27    1.69
   9   3 -10   20.99    1.87
   9   3 -10   20.14    1.62
  -8  -3  10    0.64    2.07
  -8   3  10    2.07    2.38
   8   3 -10    1.07    1.37
   8   3 -10   -0.86    1.53
  -8   3  10   -0.09    1.50
  -7  -3  10    6.27    2.12
   7   3 -10    3.77    1.37
  -7   3  10    1.09    2.38
   7   3 -10    3.17    1.53
  -7   3  10    3.71    1.51
  -6  -3  10   34.40    3.51
  -6  -3  10   36.20    3.42
  -6   3  10   35.18    3.14
   6   3 -10   35.40    2.40
  -6   3  10   40.85    2.61
   6   3 -10   39.77    2.73
  -5  -3  10    9.03    2.18
  -5  -3  10   12.68    2.37
   5   3 -10   11.37    1.45
   5   3 -10   13.46    1.58
  -5   3  10   10.22    1.54
  -4  -3  10   13.53    2.34
  -4   3  10   17.31    1.66
  -4   3  10    7.72    2.49
   4   3 -10   15.55    1.54
   4   3 -10   18.75    1.65
  -3  -3  10   -1.59    2.17
   3   3 -10   -0.68    1.29
  -3   3  10   -3.77    2.46
   3   3 -10    0.99    1.30
  -2  -3  10   -2.79    1.85
  -2  -3  10   -0.18    2.41
  -2   3  10    0.42    2.55
   2   3 -10    0.61    1.26
   2   3 -10   -0.48    1.28
  -2   3  10    1.45    2.37
  -1  -3  10   -2.87    1.89
  -1  -3  10   -2.06    2.51
  -1   3  10    0.59    1.37
  -1   3  10    2.46    2.58
  -1   3  10   -1.44    2.44
   0  -3  10   -2.17    2.01
   0   3  10   -1.69    2.43
   0   3  10    7.71    2.58
   1  -3  10    4.99    2.29
   1   3  10   14.95    2.49
   1   3  10    7.83    2.59
   2   3  10   15.55    2.73
   2   3  10   12.72    2.29
  15   0 -11   -0.63    0.86
  14   0 -11   -0.31    1.07
  14   0 -11   -0.15    1.25
  13   0 -11   -0.22    1.20
  13   0 -11   -0.61    1.37
  12   0 -11    2.10    1.19
  12   0 -11    0.63    1.29
  11   0 -11    0.54    1.24
  11   0 -11    0.49    1.26
  10   0 -11    0.35    1.12
  10   0 -11    1.15    1.21
   9   0 -11   -0.31    1.10
   9   0 -11    0.27    1.20
   8   0 -11    2.01    1.20
  -8   0  11   -0.32    1.57
   8   0 -11   -0.32    0.93
   7   0 -11   -0.59    0.91
  -7   0  11    0.13    1.56
  -6   0  11    0.63    1.56
  -6   0  11   -2.52    1.99
  -5   0  11    0.43    1.93
  -4   0  11   -1.64    1.82
  -3   0  11   -0.21    1.86
  -2   0  11   -1.10    1.73
  -1   0  11    0.14    1.74
  -1   0  11   -0.16    1.63
  -1   0  11    1.13    1.79
   0   0  11    0.20    1.83
   0   0  11    3.53    3.95
   0   0  11    0.22    1.84
   1   0  11   -1.16    4.35
   1   0  11   -0.47    1.88
   1   0  11   -1.84    2.04
   2   0  11   -7.78    5.09
   3   0  11    1.22    2.63
   4   0  11    0.03    2.75
   5   0  11   -0.59    2.85
   6   0  11   -0.79    2.93
   7   0  11    0.42    2.80
  14  -1 -11   14.76    1.43
  14  -1 -11   15.53    1.29
  14   1 -11   15.36    1.30
  14   1 -11   18.90    1.31
 -14   1  11   17.24    1.26
  13  -1 -11   23.47    2.02
  13  -1 -11   24.51    2.38
 -13   1  11   22.99    2.04
  13   1 -11   20.94    2.06
  13   1 -11   24.83    2.12
  12  -1 -11    8.03    1.32
  12  -1 -11   10.13    1.53
  12   1 -11    9.21    1.29
  12   1 -11   10.29    1.41
 -12   1  11    6.31    1.45
  11  -1 -11   24.45    2.35
  11  -1 -11   21.34    1.50
 -11   1  11   22.45    1.70
  11   1 -11   22.19    2.21
  11   1 -11   25.09    1.64
  10  -1 -11   62.14    2.84
 -10  -1  11   61.98    3.53
 -10   1  11   57.08    2.69
  10   1 -11   60.38    2.65
  10   1 -11   57.28    2.67
  -9  -1  11   49.55    3.25
   9  -1 -11   51.51    2.48
  -9   1  11   47.58    2.46
   9   1 -11   46.45    2.43
   9   1 -11   43.90    2.40
   8  -1 -11   21.08    1.90
  -8  -1  11   22.91    2.77
   8   1 -11   20.73    1.90
  -8   1  11   24.04    2.06
  -7  -1  11   20.98    2.55
   7  -1 -11   22.08    1.58
  -7  -1  11   20.00    2.73
  -7   1  11   20.84    1.56
   7   1 -11   18.79    1.83
  -6  -1  11  104.61    4.77
  -6  -1  11  107.05    4.90
  -6   1  11  108.35    3.39
  -5  -1  11   85.84    4.37
  -5  -1  11   84.97    4.23
  -5   1  11   88.53    4.25
  -5   1  11   86.27    4.30
  -5   1  11   87.75    2.97
  -4  -1  11    9.48    2.01
  -4  -1  11    7.30    1.78
  -4   1  11    3.83    1.81
  -4   1  11    7.96    1.81
  -4   1  11    5.95    1.27
  -3  -1  11   29.36    2.89
  -3  -1  11   31.09    3.03
  -3   1  11   28.53    2.80
  -3   1  11   29.68    1.97
  -3   1  11   31.66    3.13
  -2  -1  11   68.07    3.99
  -2  -1  11   65.29    3.73
  -2   1  11   68.99    3.72
  -2   1  11   62.99    2.58
  -2   1  11   67.55    3.92
  -1  -1  11   31.23    3.29
  -1   1  11   33.34    3.39
  -1   1  11   30.82    2.03
  -1   1  11   36.50    3.02
   0  -1  11   23.97    5.04
   0  -1  11   28.46    3.06
   0   1  11   43.00    7.01
   0   1  11   31.15    3.22
   0   1  11   26.48    3.46
   0   1  11   31.31    2.06
   1  -1  11   11.48    2.22
   1   1  11   11.05    1.49
   1   1  11    9.65    2.27
   1   1  11   -1.48    6.21
   1   1  11   11.91    2.43
   3  -1  11   23.03    2.92
   3   1  11   22.06    3.11
   4  -1  11   17.69    2.95
   5  -1  11   12.66    2.99
   5   1  11   11.34    2.87
   6  -1  11   -0.14    2.82
   6   1  11    1.45    2.65
   6   1  11   -0.12    4.06
   7  -1  11    6.78    2.26
   7   1  11    7.65    2.69
 -13   2  11   -0.41    1.12
 -13   2  11   -0.45    1.52
 -12  -2  11    3.27    1.24
  12   2 -11    4.20    1.31
 -12   2  11    4.10    1.39
 -12   2  11    1.54    2.01
 -11  -2  11    0.73    1.51
 -11   2  11    1.87    2.42
  11   2 -11    0.87    1.23
  11   2 -11    0.30    1.35
 -11   2  11   -0.62    1.49
 -10  -2  11   -0.17    1.69
 -10   2  11   -1.63    1.51
  10   2 -11    2.35    1.29
 -10   2  11    0.76    2.51
  10   2 -11   -1.32    1.51
  -9  -2  11    2.90    1.81
   9  -2 -11    4.49    1.50
   9   2 -11    2.79    1.41
  -9   2  11    2.65    2.52
  -9   2  11    3.93    1.56
   9   2 -11    6.29    1.59
   8  -2 -11    1.86    1.39
  -8  -2  11    0.61    1.91
  -8   2  11    0.22    1.50
  -8   2  11    1.84    2.41
   8   2 -11    1.65    1.36
   7  -2 -11    2.25    1.35
  -7  -2  11    1.70    1.94
  -7  -2  11    2.84    1.92
  -7   2  11    1.74    2.30
   7   2 -11    4.43    1.33
  -7   2  11    4.30    1.54
  -6  -2  11   12.60    2.34
  -6  -2  11   13.79    2.22
  -6   2  11   14.03    2.24
   6   2 -11   15.17    1.50
  -6   2  11   14.70    1.61
  -5  -2  11    3.16    2.04
  -5  -2  11    4.46    2.19
  -5   2  11    2.84    2.04
  -5   2  11    3.68    1.40
   5   2 -11    1.19    1.14
  -4  -2  11    0.27    2.14
  -4  -2  11    1.44    2.11
  -4   2  11    1.87    1.35
  -4   2  11   -0.85    2.03
  -4   2  11   -0.48    2.16
  -3  -2  11    0.68    2.18
  -3  -2  11    2.20    2.21
  -3   2  11    1.89    1.39
  -3   2  11    1.50    2.22
  -3   2  11    2.73    2.16
  -2  -2  11   -0.76    2.29
  -2   2  11   -0.86    1.33
  -2   2  11    0.42    2.27
  -2   2  11    0.16    2.27
  -1  -2  11    9.53    2.48
  -1  -2  11   13.65    2.32
  -1   2  11    9.56    1.53
  -1   2  11    8.52    2.41
  -1   2  11    9.86    2.53
  -1   2  11   10.62    4.43
   0  -2  11   12.66    2.26
   0  -2  11    5.42    2.43
   0   2  11    5.61    2.45
   0   2  11    8.70    4.68
   0   2  11    6.34    1.51
   0   2  11    7.22    2.50
   1   2  11   -3.69    4.98
   1   2  11    0.23    2.30
   1   2  11   -1.71    2.43
   1   2  11   -0.12    1.54
   2  -2  11   13.38    2.49
   2   2  11    5.59    2.48
   2   2  11    6.88    2.44
   3   2  11   -0.42    2.56
   4   2  11   -2.42    4.09
   4   2  11    4.60    2.70
   5  -2  11   15.10    2.56
   5   2  11   11.13    2.68
   6  -2  11    6.77    1.83
 -10  -3  11    6.76    1.38
  10   3 -11    4.97    1.16
 -10   3  11    3.96    1.82
  -9  -3  11   19.71    2.54
  -9   3  11   14.56    2.19
   9   3 -11   23.86    2.26
   9   3 -11   18.45    1.41
  -9   3  11   22.44    1.65
  -8  -3  11    2.39    1.65
  -8  -3  11    2.04    2.09
  -8   3  11   -0.22    1.52
  -8   3  11   -0.29    2.04
   8   3 -11    1.08    1.50
   8   3 -11    1.15    1.26
  -7  -3  11    1.40    1.84
  -7  -3  11    2.75    2.24
   7   3 -11   -0.19    1.50
  -7   3  11   -1.03    1.54
  -7   3  11    0.47    1.99
   7   3 -11    0.54    1.27
  -6  -3  11   16.64    2.16
  -6  -3  11   12.08    2.42
   6   3 -11   11.00    1.56
   6   3 -11   15.11    1.44
  -6   3  11    6.92    1.93
  -6   3  11   14.04    1.61
  -5  -3  11    9.27    2.15
  -5  -3  11    3.95    2.24
   5   3 -11    6.93    1.31
   5   3 -11    6.21    1.52
  -5   3  11    6.26    1.53
  -4  -3  11    4.98    2.31
  -4   3  11    7.20    1.49
   4   3 -11    5.25    1.31
   4   3 -11    6.51    1.43
  -3  -3  11    1.80    2.27
   3   3 -11   -1.47    1.25
  -3   3  11   -1.23    2.48
   3   3 -11    0.56    1.32
  -3   3  11   -0.15    1.33
  -2  -3  11    3.57    2.38
   2   3 -11    3.50    1.35
  -2   3  11    1.43    1.38
  -2   3  11    5.41    2.60
  -1  -3  11    5.00    2.12
  -1  -3  11    7.04    2.31
  -1   3  11    6.07    1.53
   1   3 -11    6.42    1.42
  -1   3  11   12.68    2.69
  -1   3  11    0.73    2.27
  -1   3  11    6.82    2.14
   0  -3  11   -2.82    2.20
   0   3  11   -0.88    2.31
   0   3  11    0.91    2.05
   1  -3  11   -1.17    2.37
   1   3  11    4.61    2.38
   1   3  11    9.62    2.21
   1   3  11    1.63    2.02
   2  -3  11   -4.32    2.15
   2   3  11    7.22    2.30
   2   3  11    5.74    2.04
   3  -3  11   -2.24    1.61
  14   0 -12   -0.15    1.15
  14   0 -12   -1.42    0.94
  13   0 -12    2.05    1.16
  13   0 -12    1.02    1.29
  12   0 -12   13.91    1.44
  12   0 -12   13.93    1.34
  11   0 -12    0.74    1.20
  11   0 -12    0.55    1.13
  10   0 -12    2.29    1.19
  10   0 -12    4.93    1.22
   9   0 -12   99.32    3.23
   9   0 -12  102.36    3.43
   8   0 -12   73.08    2.77
  -8   0  12   70.24    3.85
   8   0 -12   73.68    2.69
  -7   0  12   15.59    2.08
  -6   0  12    5.43    1.62
  -6   0  12    7.59    1.77
  -5   0  12    9.22    1.75
  -5   0  12    9.17    1.84
  -4   0  12  133.52    5.77
  -4   0  12  135.94    5.70
  -3   0  12   20.19    2.19
  -3   0  12   17.81    2.11
  -2   0  12    0.69    1.70
  -2   0  12    0.10    1.89
  -1   0  12   74.49    4.27
  -1   0  12   74.86    4.06
   0   0  12   42.48    8.51
   0   0  12   39.74    3.36
   0   0  12   40.75    3.46
   1   0  12    9.68    2.18
   1   0  12    9.11    3.37
   1   0  12   11.49    2.41
   2   0  12   19.73    4.33
   3   0  12    0.07    4.88
   4   0  12    2.63    2.46
   4   0  12   -3.10    4.70
   5   0  12   -0.75    2.47
   6   0  12    5.83    2.66
  14   1 -12    1.20    0.97
  13  -1 -12    4.49    1.40
  13  -1 -12    6.66    1.24
  13   1 -12    6.79    1.23
  13   1 -12    4.82    1.24
 -13   1  12    3.78    1.18
  12  -1 -12    2.55    1.32
  12  -1 -12    2.36    1.18
  12   1 -12    0.84    1.13
  12   1 -12    2.13    1.20
 -12   1  12    0.89    1.23
  11  -1 -12    3.56    1.29
  11   1 -12    3.69    1.20
  11   1 -12    4.11    1.22
 -11   1  12    2.38    1.32
  10  -1 -12    0.46    1.27
 -10  -1  12    0.25    1.56
  10   1 -12    0.82    1.28
 -10   1  12    1.49    1.28
  10   1 -12   -0.46    1.14
  -9  -1  12   -0.22    1.72
   9  -1 -12   -0.19    1.13
   9   1 -12    0.82    1.32
   9   1 -12   -0.23    1.07
  -9   1  12    0.07    1.24
  -8  -1  12   13.76    2.08
   8  -1 -12   12.76    1.32
  -8   1  12   14.64    1.45
   8   1 -12   18.34    1.50
   7  -1 -12   42.58    2.20
  -7  -1  12   42.49    3.06
  -7  -1  12   46.93    3.24
   7   1 -12   42.25    2.28
  -7   1  12   42.66    2.28
  -6  -1  12    0.23    1.75
  -6  -1  12   -0.50    1.59
  -6   1  12   -0.16    1.28
  -6   1  12    0.25    1.76
  -6   1  12   -0.30    1.75
  -5  -1  12   23.56    2.35
  -5  -1  12   19.75    2.23
  -5   1  12   19.22    2.25
  -5   1  12   19.76    2.27
  -4  -1  12    3.68    1.91
  -4  -1  12    1.53    1.93
  -4   1  12    1.56    1.82
  -4   1  12    2.03    1.94
  -3  -1  12    1.16    2.06
  -3  -1  12    0.76    1.86
  -3   1  12   -0.22    1.80
  -3   1  12   -0.84    2.02
  -2  -1  12    8.80    2.02
  -2  -1  12    7.98    2.17
  -2   1  12    6.04    2.22
  -2   1  12    7.29    1.97
  -1  -1  12    3.96    2.11
  -1   1  12    4.52    2.28
  -1   1  12    7.45    2.09
   0  -1  12   32.69    3.47
   0   1  12   36.29    3.58
   0   1  12   43.78    6.26
   0   1  12   32.65    3.71
   1   1  12   34.48    3.59
   1   1  12   27.52    3.99
   1   1  12   31.72    3.60
   2  -1  12   13.32    2.59
   2   1  12   14.71    4.49
   2   1  12   11.07    2.51
   2   1  12   12.14    2.74
   3  -1  12   12.97    2.67
   3   1  12   10.57    2.75
   4  -1  12    2.86    2.67
   4   1  12   -7.04    4.68
   5  -1  12    1.05    2.59
   5   1  12   -0.73    2.99
   6  -1  12    0.16    2.21
 -12  -2  12   19.98    2.14
 -12   2  12   21.14    2.54
 -12   2  12   26.55    2.12
  12   2 -12   21.23    2.00
  12   2 -12   20.91    1.51
 -11  -2  12    2.54    1.45
  11   2 -12    3.44    1.25
  11   2 -12    2.21    1.16
 -11   2  12    1.29    2.23
 -11   2  12    5.43    1.49
 -10  -2  12    0.79    1.51
  10   2 -12   -0.08    1.41
 -10   2  12    0.31    1.49
  10   2 -12    2.76    1.34
 -10   2  12   -1.24    2.47
  -9  -2  12    0.82    1.68
  -9   2  12    0.95    1.53
  -9   2  12   -0.75    2.43
   9   2 -12    1.76    1.31
   9   2 -12    1.12    1.47
  -8  -2  12   29.53    2.91
  -8  -2  12   32.37    3.30
   8   2 -12   33.91    2.45
  -8   2  12   31.85    2.41
  -8   2  12   28.41    3.23
  -7  -2  12    0.26    1.85
  -7  -2  12    1.46    1.91
  -7   2  12   -0.08    1.45
   7   2 -12    0.37    1.32
  -6  -2  12    1.60    1.95
  -6  -2  12    2.35    2.01
   6   2 -12    0.81    1.31
  -6   2  12    0.48    1.44
  -5  -2  12   69.54    4.26
  -5  -2  12   68.80    4.32
  -5   2  12   76.47    4.69
  -5   2  12   71.93    2.95
  -4  -2  12   42.36    3.57
  -4  -2  12   45.40    3.87
  -4   2  12   44.47    3.96
  -4   2  12   43.48    2.51
  -4   2  12   46.37    3.73
  -3  -2  12    6.58    2.30
  -3   2  12    4.00    2.37
  -3   2  12    4.80    1.46
  -3   2  12    5.06    2.36
  -2  -2  12   15.63    2.55
  -2   2  12   14.15    2.63
  -2   2  12   11.71    1.54
  -2   2  12   12.28    2.61
  -1  -2  12    1.63    2.36
  -1   2  12   -1.00    2.26
  -1   2  12    0.73    1.43
  -1   2  12    2.41    2.42
  -1   2  12    0.66    2.64
   0  -2  12   10.44    2.41
   0  -2  12   15.63    2.36
   0   2  12    3.45    2.97
   0   2  12    9.60    2.42
   0   2  12    6.71    2.45
   0   2  12    7.59    1.60
   1   2  12    0.62    2.99
   1   2  12    3.01    2.37
   1   2  12    5.88    2.38
   2   2  12    3.80    2.28
   2   2  12    0.19    2.35
   2   2  12   -3.14    2.92
   4   2  12    5.42    2.36
   4   2  12    7.78    2.35
  -9  -3  12    3.41    1.29
   9   3 -12    4.88    1.14
  -9   3  12    2.60    1.18
  -8  -3  12   31.17    2.64
  -8  -3  12   35.69    3.14
   8   3 -12   27.97    2.28
  -8   3  12   35.45    2.25
  -7  -3  12    5.59    2.21
  -7  -3  12    2.70    1.55
   7   3 -12    1.68    1.14
   7   3 -12    1.21    1.34
  -7   3  12    2.41    1.43
  -6  -3  12    0.77    1.59
  -6  -3  12    0.68    2.12
   6   3 -12   -0.04    1.24
  -6   3  12    2.26    1.40
   6   3 -12    1.84    1.15
  -5  -3  12    4.87    2.16
   5   3 -12    6.78    1.22
   5   3 -12    4.64    1.28
  -5   3  12    4.06    1.46
  -4  -3  12   46.00    3.72
   4   3 -12   43.76    2.41
  -4   3  12   34.69    4.02
  -4   3  12   48.98    2.54
   4   3 -12   46.16    2.30
  -3  -3  12   77.12    4.14
  -3   3  12   69.05    4.79
   3   3 -12   71.19    2.89
  -2  -3  12   20.15    2.30
   2   3 -12   25.22    1.60
  -2   3  12   24.82    2.94
  -1  -3  12   18.25    2.09
   1   3 -12   18.57    1.50
  -1   3  12   19.47    2.57
   0  -3  12    9.22    2.10
   0   3 -12    9.34    1.34
   0   3  12    4.00    2.13
   0   3  12   13.07    2.24
   1  -3  12   24.29    2.44
  -1   3 -12   22.06    1.99
   1   3  12   27.99    2.74
   1   3  12   17.20    2.36
  14   0 -13   -0.33    0.98
  14   0 -13   -0.43    0.85
  13   0 -13    1.27    1.05
  13   0 -13    0.17    1.10
  12   0 -13    0.64    1.18
  12   0 -13   -0.39    1.08
  11   0 -13    1.15    1.10
  11   0 -13   -1.02    1.07
  10   0 -13   -1.17    1.06
  10   0 -13    0.35    1.11
   9   0 -13    0.24    1.08
   9   0 -13    1.15    1.03
  -9   0  13   -1.41    1.59
   8   0 -13   -0.03    1.00
  -8   0  13   -0.31    1.68
   8   0 -13   -0.76    1.06
  -7   0  13   -0.38    1.74
   7   0 -13    1.26    1.11
  -7   0  13    0.24    1.65
  -6   0  13   -0.22    1.74
  -6   0  13   -0.53    1.64
  -5   0  13   -0.49    1.76
  -5   0  13   -0.27    1.80
  -4   0  13    0.30    1.91
  -4   0  13   -1.83    1.75
  -3   0  13    0.41    1.84
  -3   0  13   -0.27    2.04
  -2   0  13   -1.18    1.90
  -2   0  13    0.76    2.12
  -1   0  13   -0.55    2.04
  -1   0  13    1.16    2.16
   0   0  13    0.75    2.17
   0   0  13    0.42    2.51
   0   0  13   -1.61    2.13
   1   0  13   -1.21    2.21
   1   0  13   -0.37    2.62
   2   0  13   -0.83    2.67
   3   0  13   -1.83    2.56
  13  -1 -13    3.19    1.16
  13   1 -13    1.19    1.05
  13   1 -13    1.43    1.02
  12  -1 -13    1.69    1.22
  12   1 -13    2.92    1.11
  12   1 -13    1.62    1.07
  11  -1 -13    2.20    1.20
 -11  -1  13    2.41    1.38
  11   1 -13    2.19    1.16
  11   1 -13    3.27    1.15
  10  -1 -13    2.10    1.20
 -10  -1  13    3.11    1.60
  10   1 -13    2.29    1.18
  10   1 -13    0.73    1.09
   9  -1 -13   12.56    1.41
  -9  -1  13   12.21    1.93
   9   1 -13   16.05    1.44
   9   1 -13   16.59    1.47
  -8  -1  13    0.78    1.78
   8  -1 -13    0.40    1.15
   8   1 -13   -0.16    1.07
  -7  -1  13    9.37    1.85
  -7  -1  13    9.28    2.12
  -6  -1  13   -1.15    1.86
  -6  -1  13    0.30    1.71
  -6   1  13    0.60    1.86
  -6   1  13    0.52    1.92
  -5  -1  13   52.46    3.67
  -5  -1  13   49.01    3.64
  -5   1  13   52.03    3.78
  -5   1  13   53.59    3.62
  -4  -1  13    7.76    2.10
  -4  -1  13    7.87    2.18
  -4   1  13    4.66    2.16
  -4   1  13    5.77    2.04
  -3  -1  13   37.33    3.31
  -3  -1  13   38.32    3.66
  -3   1  13   37.58    3.35
  -3   1  13   37.25    3.81
  -2  -1  13    3.48    2.25
  -2  -1  13    2.68    2.11
  -2   1  13    4.37    2.14
  -2   1  13    4.28    2.39
  -1  -1  13   59.46    4.10
  -1   1  13   57.45    4.30
  -1   1  13   61.59    3.99
   0  -1  13    4.06    2.22
   0   1  13    2.73    2.32
   0   1  13    2.09    2.51
   0   1  13    3.26    2.29
   1   1  13    1.06    2.33
   1   1  13   -0.67    2.65
   1   1  13    1.09    2.42
   2   1  13   -0.17    2.46
   2   1  13   -0.33    2.85
   3   1  13   31.75    3.84
   3   1  13   24.72    3.72
   4   1  13    9.74    2.35
  12   2 -13    7.09    1.03
 -11  -2  13   17.75    1.76
  11   2 -13   12.20    1.22
 -11   2  13    8.59    1.93
 -11   2  13   14.66    1.54
  11   2 -13   16.33    1.35
 -10  -2  13    4.20    1.50
 -10   2  13    5.20    2.09
 -10   2  13    5.81    1.48
  10   2 -13    4.61    1.27
  10   2 -13    4.92    1.33
  -9  -2  13   10.21    1.79
  -9   2  13   11.83    1.64
   9   2 -13   13.42    1.49
   9   2 -13   10.92    1.41
  -8  -2  13    0.67    1.82
  -8  -2  13    0.86    1.72
  -8   2  13    0.10    1.48
   8   2 -13   -0.06    1.20
  -7  -2  13   20.13    2.27
  -7  -2  13   23.96    2.35
   7   2 -13   12.88    1.54
  -7   2  13   19.36    1.71
  -6  -2  13   45.21    3.34
  -6  -2  13   44.31    3.55
  -6   2  13   44.21    2.61
  -5  -2  13    5.66    2.10
  -5  -2  13    4.33    2.13
  -5   2  13    3.74    1.49
  -5   2  13    4.50    2.28
  -4  -2  13    8.52    2.26
  -4  -2  13    8.61    2.24
  -4   2  13    9.89    2.40
  -4   2  13    7.00    1.48
  -4   2  13    5.83    2.33
  -3  -2  13    8.55    2.31
  -3   2  13    8.16    2.43
  -3   2  13    9.19    1.52
  -3   2  13    7.35    2.38
  -2  -2  13   25.53    2.71
  -2   2  13   22.60    2.81
  -2   2  13   25.15    3.31
  -2   2  13   24.48    2.30
  -1  -2  13   50.57    3.89
  -1   2  13   48.50    3.77
  -1   2  13   48.21    4.10
  -1   2  13   45.90    2.70
   0   2  13    2.86    2.43
   0   2  13    0.42    2.25
   0   2  13    1.29    2.30
   1   2  13    4.89    2.32
   1   2  13    5.83    2.28
   1   2  13    6.60    2.24
   2   2  13   28.87    3.20
   2   2  13   30.55    3.48
   2   2  13   28.93    5.51
   3  -2  13   37.19    4.29
  -7  -3  13   11.73    1.86
   7   3 -13    6.95    1.16
  -7   3  13   13.03    1.37
  -6  -3  13   -1.53    1.79
   6   3 -13    0.03    1.02
  -6   3  13    0.63    1.25
  -5  -3  13    2.38    1.87
  -5   3  13    3.73    1.28
  -4  -3  13   -0.74    1.84
  -4   3  13    1.32    1.27
  -4   3  13   -2.83    2.02
   4   3 -13    0.21    0.97
  -3  -3  13    0.87    1.76
  -3   3  13   -1.74    2.11
  -3   3  13    0.66    1.31
   3   3 -13    0.35    0.93
  -2  -3  13    2.12    1.56
  -2   3  13    1.89    2.08
   2   3 -13    1.09    0.95
  -1   3  13   16.34    2.06
  13   0 -14   39.36    1.95
  13   0 -14   42.43    1.76
  12   0 -14   15.41    1.30
  12   0 -14   13.15    1.27
  11   0 -14    9.49    1.24
  11   0 -14   13.66    1.26
  10   0 -14    2.63    1.13
  10   0 -14    2.99    1.09
   9   0 -14   12.01    1.25
  -9   0  14   11.90    1.92
   9   0 -14   13.14    1.36
  -8   0  14   51.91    3.47
   8   0 -14   50.15    2.29
  -7   0  14   17.52    2.34
  -7   0  14   15.91    2.19
  -6   0  14   25.83    3.34
  -6   0  14   30.89    3.20
  -5   0  14    5.39    2.03
  -5   0  14    3.99    2.09
  -4   0  14   48.12    4.06
  -4   0  14   50.70    3.66
  -3   0  14   67.25    4.15
  -3   0  14   68.93    4.55
  -2   0  14    6.94    2.39
  -2   0  14    7.36    2.28
  -1   0  14    7.81    2.32
  -1   0  14    7.91    2.37
   0   0  14   48.74    6.75
   0   0  14   48.17    3.84
   0   0  14   45.00    3.93
   1   0  14   73.61    6.97
   2   0  14   17.30    2.63
   3   0  14    3.21    2.52
  13  -1 -14    0.82    0.97
  13   1 -14   -0.07    0.86
  13   1 -14   -0.26    0.86
  12  -1 -14    1.01    1.02
  12   1 -14    1.69    1.00
  12   1 -14    1.80    1.01
 -11  -1  14    2.35    1.39
  11  -1 -14    0.30    1.13
  11   1 -14    1.03    1.05
  11   1 -14    0.14    1.12
  10  -1 -14    0.98    1.11
 -10  -1  14    3.19    1.54
  10   1 -14    3.49    1.01
  10   1 -14    3.90    1.21
  -9  -1  14    0.46    1.62
   9  -1 -14    1.70    1.16
   9   1 -14    0.93    1.17
   9   1 -14    1.34    1.05
  -8  -1  14   10.76    2.04
  -8  -1  14   10.94    2.06
   8  -1 -14    9.36    1.35
   8   1 -14   10.43    1.28
  -7  -1  14   -0.86    1.92
  -7  -1  14    1.52    1.90
  -7   1  14    0.00    1.84
  -6  -1  14    0.72    1.92
  -6  -1  14    0.24    1.94
  -6   1  14   -1.07    2.09
  -6   1  14   -0.42    1.97
  -5  -1  14    5.81    2.08
  -5  -1  14    5.69    2.20
  -5   1  14    5.82    2.09
  -5   1  14    7.65    2.34
  -4  -1  14    7.25    2.34
  -4  -1  14    6.53    2.19
  -4   1  14    5.87    2.37
  -4   1  14    4.39    2.11
  -3  -1  14    2.52    2.31
  -3  -1  14    0.68    2.16
  -3   1  14    4.87    2.45
  -3   1  14    3.28    2.16
  -2  -1  14    0.20    2.25
  -2  -1  14    0.98    2.18
  -2   1  14   -0.88    2.33
  -2   1  14    0.69    2.12
  -1  -1  14    1.90    2.24
  -1   1  14    1.73    2.23
  -1   1  14    2.65    2.32
   0  -1  14   24.68    2.62
   0   1  14   25.48    3.40
   0   1  14   23.03    2.74
   0   1  14   18.09    2.94
   1   1  14   -1.72    2.28
   1   1  14    0.81    2.35
   1   1  14   -0.99    2.13
   2   1  14    0.82    2.09
   2   1  14    0.96    2.05
 -11  -2  14    3.17    1.22
  11   2 -14    6.19    0.99
 -10  -2  14   15.70    1.66
  10   2 -14   14.34    1.28
 -10   2  14   12.91    1.45
  10   2 -14   11.77    1.20
  -9  -2  14   12.37    1.70
   9   2 -14   12.36    1.23
  -9   2  14   11.13    1.48
   9   2 -14   13.02    1.32
  -8  -2  14    5.64    1.70
  -8  -2  14    6.48    1.98
  -8   2  14    4.58    1.44
   8   2 -14    3.02    1.10
  -7  -2  14   14.04    2.14
  -7  -2  14   11.63    1.99
  -7   2  14   10.32    1.57
  -6  -2  14    1.81    1.92
  -6  -2  14    1.82    1.98
  -6   2  14    1.32    2.21
  -6   2  14    0.08    1.47
  -5  -2  14    4.90    2.05
  -5  -2  14    3.23    1.98
  -5   2  14    0.33    2.22
  -5   2  14    0.88    1.41
  -5   2  14    0.28    2.02
  -4  -2  14   25.35    2.47
  -4  -2  14   20.74    2.35
  -4   2  14   20.08    1.71
  -4   2  14   21.21    2.77
  -4   2  14   18.08    2.43
  -3  -2  14   21.56    2.42
  -3   2  14   16.93    2.75
  -3   2  14   14.36    1.63
  -3   2  14   12.99    2.32
  -2  -2  14   11.43    2.29
  -2   2  14   11.45    2.57
  -2   2  14    8.45    2.34
  -2   2  14    8.84    1.62
  -1  -2  14   -0.04    2.00
  -1   2  14   -0.15    2.31
  -1   2  14   -0.42    2.07
   0   2  14   38.83    3.53
   0   2  14   37.91    3.40
   1   2  14    5.50    1.92
   1   2  14    5.64    1.97
  12   0 -15    0.76    0.93
  12   0 -15    1.38    0.93
  11   0 -15   -0.74    0.93
  11   0 -15   -0.90    1.03
  10   0 -15   -0.20    0.94
  10   0 -15    0.22    1.07
  -9   0  15    1.56    1.64
   9   0 -15    0.38    1.05
   9   0 -15   -1.19    0.99
  -8   0  15    1.62    1.79
  -7   0  15   -0.27    1.92
  -7   0  15   -0.72    1.98
  -6   0  15   -2.12    2.05
  -6   0  15   -0.01    1.94
  -5   0  15   -2.52    2.11
  -5   0  15    0.69    2.02
  -4   0  15    1.61    2.10
  -4   0  15   -1.42    2.28
  -3   0  15   -3.70    2.23
  -3   0  15   -2.17    2.08
  -2   0  15    1.34    2.23
  -2   0  15   -1.20    2.33
  -1   0  15    1.87    2.40
  -1   0  15    0.23    2.20
   0   0  15   -0.89    2.24
   0   0  15    2.99    2.19
  12  -1 -15   31.73    1.82
  12   1 -15   32.37    1.78
  12   1 -15   31.22    1.70
 -11  -1  15   12.07    1.49
  11  -1 -15   13.31    1.20
  11   1 -15   12.31    1.14
  11   1 -15   13.80    1.30
 -10  -1  15    7.21    1.57
  10  -1 -15    6.40    1.10
  10   1 -15    5.62    1.27
  10   1 -15    5.06    1.02
   9  -1 -15    7.58    1.17
  -9  -1  15    8.55    1.75
   9   1 -15    8.38    1.06
   9   1 -15    8.47    1.32
  -8  -1  15   19.56    2.14
  -8  -1  15   18.09    2.20
   8   1 -15   19.02    1.52
  -7  -1  15   20.79    2.34
  -7  -1  15   20.06    2.32
  -7   1  15   15.28    2.13
  -6  -1  15    4.35    2.15
  -6  -1  15    6.89    2.10
  -6   1  15    5.10    1.98
  -6   1  15    6.66    2.29
  -5  -1  15    7.05    2.18
  -5  -1  15    8.21    2.29
  -5   1  15    4.24    2.07
  -5   1  15    8.34    2.38
  -4  -1  15   11.73    2.42
  -4  -1  15   12.36    2.35
  -4   1  15   10.75    2.29
  -4   1  15   13.12    2.56
  -3  -1  15   10.96    2.46
  -3  -1  15   10.54    2.38
  -3   1  15   12.23    2.57
  -3   1  15    9.54    2.30
  -2  -1  15   13.16    2.49
  -2  -1  15   10.92    2.38
  -2   1  15   10.50    2.58
  -2   1  15   11.12    2.26
  -1  -1  15    2.37    2.23
  -1   1  15    4.47    2.40
  -1   1  15    4.47    2.19
   0   1  15    5.63    2.18
   0   1  15    7.45    2.30
   1   1  15    9.91    1.94
   1   1  15    9.94    2.04
  -9  -2  15    2.01    1.23
   9   2 -15    2.89    0.86
   9   2 -15    2.16    1.10
  -9   2  15    1.49    1.21
  -8  -2  15    5.09    1.48
  -8  -2  15    4.85    1.91
   8   2 -15    4.59    1.17
  -8   2  15    2.91    1.27
  -7  -2  15    4.00    1.58
  -7  -2  15    3.47    2.06
  -7   2  15    3.51    1.31
  -6  -2  15    4.08    1.70
  -6  -2  15    3.80    2.09
  -6   2  15    3.87    1.34
  -6   2  15    3.18    2.29
  -5  -2  15    4.82    2.10
  -5  -2  15    3.27    1.80
  -5   2  15    8.17    2.51
  -5   2  15    3.74    1.86
  -5   2  15    3.36    1.35
  -4  -2  15    4.14    2.02
  -4   2  15    1.10    1.93
  -4   2  15    3.69    1.39
  -4   2  15    4.35    2.59
  -3  -2  15    4.32    2.00
  -3   2  15    4.92    2.49
  -3   2  15    2.61    1.92
  -3   2  15    1.38    1.43
  -2  -2  15    1.02    1.83
  -2   2  15    2.44    2.22
  -2   2  15    0.28    1.86
  -1   2  15    3.10    2.06
  -1   2  15    1.25    1.81
   0   2  15    4.58    1.71
  11   0 -16   10.49    0.96
  10   0 -16    0.72    0.86
  -9   0  16    3.53    1.66
  -8   0  16    2.18    1.79
  -7   0  16    0.46    2.17
  -7   0  16    0.23    1.88
  -6   0  16    1.40    2.05
  -6   0  16    2.07    2.32
  -5   0  16    5.81    2.42
  -5   0  16    5.33    2.14
  -4   0  16    4.14    2.08
  -4   0  16    6.43    2.49
  -3   0  16    0.04    2.42
  -3   0  16   -1.15    2.12
  -2   0  16    2.80    2.44
  -2   0  16    1.98    2.14
  -1   0  16    1.45    2.17
  -1   0  16    3.00    2.05
   0   0  16    0.69    1.87
 -10  -1  16    2.76    1.27
  10   1 -16    3.66    1.12
  10   1 -16    3.02    0.79
  -9  -1  16    9.85    1.62
   9   1 -16   14.16    1.39
  -8  -1  16    1.95    2.04
  -8  -1  16    0.96    1.54
   8   1 -16    3.47    1.24
  -7  -1  16    7.53    2.26
  -7  -1  16    3.17    1.71
  -7   1  16    5.37    2.31
  -7   1  16    4.61    1.83
   7   1 -16    4.09    1.24
  -6  -1  16    6.76    1.91
  -6  -1  16    9.13    2.37
  -6   1  16    7.93    2.48
  -6   1  16    5.96    1.98
  -5  -1  16    4.94    2.01
  -5  -1  16    7.99    2.37
  -5   1  16    5.03    2.04
  -5   1  16    7.83    2.62
  -4  -1  16    5.20    2.06
  -4  -1  16    2.08    2.31
  -4   1  16    1.59    2.06
  -4   1  16    5.18    2.56
  -3  -1  16   -0.22    2.20
  -3  -1  16    1.09    2.02
  -3   1  16    3.98    2.04
  -3   1  16    3.68    2.42
  -2  -1  16    7.25    2.13
  -2   1  16    3.90    1.96
  -2   1  16    4.53    2.37
  -1  -1  16    0.43    1.81
  -1   1  16    1.15    1.89
  -1   1  16   -0.82    2.01
   0   1  16    2.45    1.72
   7   2 -16    1.70    1.21
  -6  -2  16    2.04    1.68
  -5  -2  16    1.25    1.71
  -4  -2  16    6.55    1.80
  -4   2  16    9.39    2.16
  -3   2  16    1.42    1.97
  -9   0  17   -0.32    1.32
  -8   0  17    0.10    1.49
  -7   0  17    1.15    1.71
  -7   0  17    1.27    2.27
  -6   0  17   -0.90    2.41
  -6   0  17    0.26    1.68
  -5   0  17   -0.48    1.72
  -5   0  17   -0.80    2.41
  -4   0  17    0.58    1.82
  -4   0  17    1.52    2.30
  -3   0  17   -1.55    2.23
  -3   0  17   -0.51    1.81
  -2   0  17    0.70    1.71
  -2   0  17    2.22    2.08
  -8  -1  17   26.71    2.34
  -7  -1  17   14.27    2.07
  -7  -1  17   12.15    1.70
  -7   1  17   10.11    1.63
   7   1 -17   11.42    1.27
  -6  -1  17   11.97    1.79
  -6  -1  17   11.65    2.19
  -6   1  17   10.19    1.78
  -6   1  17   12.55    2.36
  -5  -1  17   17.85    2.23
  -5  -1  17   12.78    1.90
  -5   1  17   17.06    2.49
  -5   1  17   11.35    1.82
  -4  -1  17   12.53    2.16
  -4  -1  17    7.97    1.77
  -4   1  17    8.04    1.80
  -4   1  17   12.64    2.34
  -3  -1  17   33.33    3.12
  -3   1  17   28.79    3.01
  -3   1  17   37.57    3.26
  -2   1  17   15.41    2.03
  -6   0  18   14.16    1.79
   0   0   0    0.00    0.00
;
_shelx_hkl_checksum              71455
#END Tags that were not found in dictionaries
loop_
_space_group_symop_operation_xyz
'x, y, z'
'-x, y+1/2, -z+1/2'
'-x, -y, -z'
'x, -y-1/2, z-1/2'
loop_
_atom_site_label
_atom_site_type_symbol
_atom_site_fract_x
_atom_site_fract_y
_atom_site_fract_z
_atom_site_U_iso_or_equiv
_atom_site_adp_type
_atom_site_occupancy
_atom_site_site_symmetry_order
_atom_site_calc_flag
_atom_site_refinement_flags_posn
_atom_site_refinement_flags_adp
S1 S 0.00263(11) 0.9350(4) 0.14043(10) 0.0264(5) Uani 1 1 d . .
O1 O 0.2402(4) 0.5092(12) 0.2881(3) 0.0350(11) Uani 1 1 d . .
C1 C 0.1213(4) 0.7498(14) 0.1350(4) 0.0249(13) Uani 1 1 d . .
C2 C 0.2180(5) 0.5678(16) 0.2032(4) 0.0275(13) Uani 1 1 d . .
C3 C 0.2855(5) 0.4779(16) 0.1437(4) 0.0277(13) Uani 1 1 d . .
C4 C 0.3855(5) 0.3087(16) 0.1718(4) 0.0288(13) Uani 1 1 d . .
H4A H 0.4225 0.2347 0.2364 0.035 Uiso 1 1 calc R U
C5 C 0.4309(5) 0.2494(16) 0.1015(5) 0.0320(14) Uani 1 1 d . .
H5A H 0.5002 0.1350 0.1184 0.038 Uiso 1 1 calc R U
C6 C 0.3748(5) 0.3579(16) 0.0071(4) 0.0314(14) Uani 1 1 d . .
H6A H 0.4060 0.3130 -0.0399 0.038 Uiso 1 1 calc R U
C7 C 0.2745(5) 0.5296(16) -0.0198(4) 0.0290(13) Uani 1 1 d . .
H7A H 0.2371 0.6014 -0.0846 0.035 Uiso 1 1 calc R U
C8 C 0.2299(5) 0.5948(15) 0.0491(4) 0.0258(12) Uani 1 1 d . .
C9 C 0.1278(5) 0.7685(15) 0.0451(4) 0.0270(13) Uani 1 1 d . .
C10 C 0.0382(5) 0.9427(15) -0.0208(4) 0.0246(12) Uani 1 1 d . .
loop_
_atom_site_aniso_label
_atom_site_aniso_U_11
_atom_site_aniso_U_22
_atom_site_aniso_U_33
_atom_site_aniso_U_23
_atom_site_aniso_U_13
_atom_site_aniso_U_12
S1 0.0265(8) 0.0337(9) 0.0202(8) 0.0016(6) 0.0102(6) 0.0014(6)
O1 0.037(2) 0.046(3) 0.021(2) 0.0004(19) 0.0107(18) 0.001(2)
C1 0.021(3) 0.029(3) 0.024(3) 0.003(2) 0.009(2) -0.001(2)
C2 0.026(3) 0.033(3) 0.023(3) -0.004(2) 0.008(2) -0.006(2)
C3 0.027(3) 0.029(3) 0.025(3) -0.002(2) 0.009(2) -0.007(2)
C4 0.032(3) 0.030(3) 0.023(3) -0.002(2) 0.008(2) -0.006(2)
C5 0.025(3) 0.036(3) 0.034(4) -0.003(3) 0.010(3) -0.001(3)
C6 0.031(3) 0.033(3) 0.037(4) -0.008(3) 0.020(3) -0.007(3)
C7 0.031(3) 0.037(3) 0.020(3) -0.003(2) 0.010(2) -0.009(3)
C8 0.025(3) 0.026(3) 0.026(3) 0.002(2) 0.010(2) -0.004(2)
C9 0.028(3) 0.030(3) 0.023(3) -0.005(2) 0.009(2) -0.009(2)
C10 0.028(3) 0.024(3) 0.024(3) -0.003(2) 0.013(2) -0.006(2)
loop_
_atom_type_symbol
_atom_type_description
_atom_type_scat_dispersion_real
_atom_type_scat_dispersion_imag
_atom_type_scat_source
C C 0.0181 0.0091 'International Tables Vol C Tables 4.2.6.8 and 6.1.1.4'
H H 0.0000 0.0000 'International Tables Vol C Tables 4.2.6.8 and 6.1.1.4'
O O 0.0492 0.0322 'International Tables Vol C Tables 4.2.6.8 and 6.1.1.4'
S S 0.3331 0.5567 'International Tables Vol C Tables 4.2.6.8 and 6.1.1.4'
loop_
_geom_angle_atom_site_label_1
_geom_angle_atom_site_label_2
_geom_angle_atom_site_label_3
_geom_angle
_geom_angle_site_symmetry_1
_geom_angle_site_symmetry_3
C1 S1 C10 90.0(3) . 3_575
C9 C1 C2 110.8(5) . .
C9 C1 S1 113.8(4) . .
C2 C1 S1 135.4(4) . .
O1 C2 C1 128.6(5) . .
O1 C2 C3 127.7(6) . .
C1 C2 C3 103.6(5) . .
C4 C3 C8 122.4(5) . .
C4 C3 C2 128.5(6) . .
C8 C3 C2 109.1(5) . .
C3 C4 C5 117.6(6) . .
C3 C4 H4A 121.2 . .
C5 C4 H4A 121.2 . .
C6 C5 C4 120.2(6) . .
C6 C5 H5A 119.9 . .
C4 C5 H5A 119.9 . .
C7 C6 C5 121.5(5) . .
C7 C6 H6A 119.2 . .
C5 C6 H6A 119.2 . .
C8 C7 C6 118.9(5) . .
C8 C7 H7A 120.6 . .
C6 C7 H7A 120.6 . .
C7 C8 C3 119.4(5) . .
C7 C8 C9 132.7(6) . .
C3 C8 C9 107.9(5) . .
C1 C9 C10 112.2(5) . .
C1 C9 C8 108.6(5) . .
C10 C9 C8 139.2(5) . .
C9 C10 C10 112.2(6) . 3_575
C9 C10 S1 136.1(4) . 3_575
C10 C10 S1 111.7(6) 3_575 3_575
loop_
_geom_bond_atom_site_label_1
_geom_bond_atom_site_label_2
_geom_bond_distance
_geom_bond_site_symmetry_2
S1 C1 1.732(5) .
S1 C10 1.735(6) 3_575
O1 C2 1.215(7) .
C1 C9 1.380(8) .
C1 C2 1.473(8) .
C2 C3 1.507(7) .
C3 C4 1.376(9) .
C3 C8 1.405(8) .
C4 C5 1.404(8) .
C4 H4A 0.9500 .
C5 C6 1.392(9) .
C5 H5A 0.9500 .
C6 C7 1.384(8) .
C6 H6A 0.9500 .
C7 C8 1.382(8) .
C7 H7A 0.9500 .
C8 C9 1.471(8) .
C9 C10 1.391(9) .
C10 C10 1.426(10) 3_575
C10 S1 1.735(6) 3_575
loop_
_geom_torsion_atom_site_label_1
_geom_torsion_atom_site_label_2
_geom_torsion_atom_site_label_3
_geom_torsion_atom_site_label_4
_geom_torsion
_geom_torsion_site_symmetry_1
_geom_torsion_site_symmetry_4
C10 S1 C1 C9 -2.2(5) 3_575 .
C10 S1 C1 C2 179.3(6) 3_575 .
C9 C1 C2 O1 178.8(6) . .
S1 C1 C2 O1 -2.6(10) . .
C9 C1 C2 C3 0.3(6) . .
S1 C1 C2 C3 178.8(5) . .
O1 C2 C3 C4 0.7(11) . .
C1 C2 C3 C4 179.2(6) . .
O1 C2 C3 C8 -179.6(6) . .
C1 C2 C3 C8 -1.0(6) . .
C8 C3 C4 C5 -1.0(9) . .
C2 C3 C4 C5 178.7(6) . .
C3 C4 C5 C6 -0.5(9) . .
C4 C5 C6 C7 0.9(9) . .
C5 C6 C7 C8 0.2(9) . .
C6 C7 C8 C3 -1.7(9) . .
C6 C7 C8 C9 179.6(6) . .
C4 C3 C8 C7 2.2(9) . .
C2 C3 C8 C7 -177.6(5) . .
C4 C3 C8 C9 -178.9(5) . .
C2 C3 C8 C9 1.4(7) . .
C2 C1 C9 C10 -179.3(5) . .
S1 C1 C9 C10 1.8(7) . .
C2 C1 C9 C8 0.5(7) . .
S1 C1 C9 C8 -178.4(4) . .
C7 C8 C9 C1 177.6(6) . .
C3 C8 C9 C1 -1.2(7) . .
C7 C8 C9 C10 -2.7(12) . .
C3 C8 C9 C10 178.5(7) . .
C1 C9 C10 C10 -0.3(8) . 3_575
C8 C9 C10 C10 -180.0(7) . 3_575
C1 C9 C10 S1 177.9(5) . 3_575
C8 C9 C10 S1 -1.8(12) . 3_575
