#------------------------------------------------------------------------------
#$Date: 2018-01-06 04:41:52 +0200 (Sat, 06 Jan 2018) $
#$Revision: 204894 $
#$URL: file:///home/coder/svn-repositories/cod/cif/1/54/80/1548052.cif $
#------------------------------------------------------------------------------
#
# This file is available in the Crystallography Open Database (COD),
# http://www.crystallography.net/
#
# All data on this site have been placed in the public domain by the
# contributors.
#
data_1548052
loop_
_publ_author_name
'Chen, Xiao-Yang'
'Ozturk, Seyma'
'Sorensen, Erik J.'
_publ_section_title
;
 Pd-Catalyzed Ortho C-H Hydroxylation of Benzaldehydes Using a Transient
 Directing Group.
;
_journal_issue                   23
_journal_name_full               'Organic letters'
_journal_page_first              6280
_journal_page_last               6283
_journal_paper_doi               10.1021/acs.orglett.7b02906
_journal_volume                  19
_journal_year                    2017
_chemical_formula_sum            'C7 H4 Cl2 O2'
_chemical_formula_weight         191.00
_chemical_name_common            PDJXC2-44
_space_group_crystal_system      triclinic
_space_group_IT_number           2
_space_group_name_Hall           '-P 1'
_space_group_name_H-M_alt        'P -1'
_symmetry_space_group_name_Hall  '-P 1'
_symmetry_space_group_name_H-M   'P -1'
_atom_sites_solution_hydrogens   mixed
_cell_angle_alpha                65.480(2)
_cell_angle_beta                 86.218(2)
_cell_angle_gamma                72.786(2)
_cell_formula_units_Z            2
_cell_length_a                   6.6783(6)
_cell_length_b                   7.8355(7)
_cell_length_c                   8.1648(8)
_cell_measurement_reflns_used    3658
_cell_measurement_temperature    100.(2)
_cell_measurement_theta_max      31.0100
_cell_measurement_theta_min      2.7479
_cell_volume                     370.51(6)
_computing_cell_refinement       'SAINT V8.38A (Bruker AXS Inc., 2017)'
_computing_data_collection       'Bruker Instrument Service vV6.2.6'
_computing_data_reduction        'SAINT V8.38A (Bruker AXS Inc., 2017)'
_computing_molecular_graphics    'shelXle (C.B. Huebschle, rev 833)'
_computing_structure_refinement  'SHELXL-2014/7 (Sheldrick, 2014)'
_computing_structure_solution    'SHELXT (Sheldrick, 2016)'
_diffrn_ambient_temperature      100.(2)
_diffrn_detector_area_resol_mean 10.4167
_diffrn_measured_fraction_theta_full 0.980
_diffrn_measured_fraction_theta_max 0.980
_diffrn_measurement_device_type  'Bruker D8 Venture Photon 100 CMOS'
_diffrn_radiation_type           'Mo K\a'
_diffrn_radiation_wavelength     0.71073
_diffrn_reflns_av_R_equivalents  0.0463
_diffrn_reflns_av_unetI/netI     0.0432
_diffrn_reflns_limit_h_max       9
_diffrn_reflns_limit_h_min       -9
_diffrn_reflns_limit_k_max       11
_diffrn_reflns_limit_k_min       -11
_diffrn_reflns_limit_l_max       11
_diffrn_reflns_limit_l_min       -11
_diffrn_reflns_number            5819
_diffrn_reflns_theta_full        30.03
_diffrn_reflns_theta_max         30.03
_diffrn_reflns_theta_min         2.99
_diffrn_source                   'I\mS microfocus source'
_exptl_absorpt_coefficient_mu    0.812
_exptl_absorpt_correction_T_max  0.93
_exptl_absorpt_correction_T_min  0.71
_exptl_absorpt_correction_type   multi-scan
_exptl_absorpt_process_details   'SADABS V2014/5 (Bruker AXS Inc.)'
_exptl_crystal_density_diffrn    1.712
_exptl_crystal_density_method    'not measured'
_exptl_crystal_description       prism
_exptl_crystal_F_000             192
_exptl_crystal_size_max          0.298
_exptl_crystal_size_mid          0.096
_exptl_crystal_size_min          0.095
_refine_diff_density_max         0.517
_refine_diff_density_min         -0.357
_refine_ls_extinction_method     none
_refine_ls_goodness_of_fit_ref   1.043
_refine_ls_hydrogen_treatment    mixed
_refine_ls_matrix_type           full
_refine_ls_number_parameters     104
_refine_ls_number_reflns         2133
_refine_ls_number_restraints     0
_refine_ls_restrained_S_all      1.043
_refine_ls_R_factor_all          0.0391
_refine_ls_R_factor_gt           0.0307
_refine_ls_shift/su_max          0.001
_refine_ls_shift/su_mean         0.000
_refine_ls_structure_factor_coef Fsqd
_refine_ls_weighting_details
'w=1/[\s^2^(Fo^2^)+(0.0373P)^2^+0.1239P] where P=(Fo^2^+2Fc^2^)/3'
_refine_ls_weighting_scheme      calc
_refine_ls_wR_factor_gt          0.0770
_refine_ls_wR_factor_ref         0.0807
_reflns_number_gt                1837
_reflns_number_total             2133
_reflns_threshold_expression     'I > 2\s(I)'
_cod_data_source_file            ol7b02906_si_002.cif
_cod_data_source_block           PDJXC2a
_cod_depositor_comments          'Adding full bibliography for 1548052.cif.'
_cod_database_code               1548052
_shelx_res_file
;

TITL mo_PDJXC2a_0m in P-1
    mo_PDJXC2a_0m.res
    created by SHELXL-2016/6 at 15:45:43 on 02-Jun-2017
CELL 0.71073   6.67830   7.83550   8.16480  65.4804  86.2175  72.7863
ZERR    2.00   0.00060   0.00070   0.00080   0.0020   0.0024   0.0023
LATT  1
SFAC C H CL O
UNIT 14 8 4 4
TEMP -173.15
SIZE 0.095 0.096 0.298
L.S. 10
ACTA
BOND $H
LIST 4
FMAP 2
PLAN 10
WGHT    0.037300    0.123900
FVAR       0.33036
CL1   3    0.360444    0.088907    0.693368    11.00000    0.02478    0.00891 =
         0.01429   -0.00337   -0.00070   -0.00424
H1    2    0.193369    0.646366    0.884930    11.00000    0.03822
O1    4    0.170291    0.731659    0.779396    11.00000    0.03842    0.01593 =
         0.01307   -0.00946    0.00534   -0.01018
C1    1    0.290538    0.342413    0.617014    11.00000    0.01355    0.00866 =
         0.01213   -0.00358   -0.00096   -0.00314
CL2   3    0.184673    0.797922    0.140205    11.00000    0.02271    0.01368 =
         0.00833   -0.00119   -0.00169   -0.00486
O2    4    0.262403    0.385255    1.046646    11.00000    0.03853    0.02444 =
         0.01137   -0.00800    0.00238   -0.01133
C2    1    0.268240    0.452143    0.432393    11.00000    0.01399    0.01286 =
         0.01052   -0.00537    0.00060   -0.00417
AFIX  43
H2    2    0.290163    0.391521    0.350584    11.00000   -1.20000
AFIX   0
C3    1    0.211958    0.656422    0.371350    11.00000    0.01327    0.01153 =
         0.00808   -0.00111   -0.00051   -0.00391
C4    1    0.178111    0.751223    0.484939    11.00000    0.01591    0.01029 =
         0.01310   -0.00419    0.00045   -0.00338
AFIX  43
H4    2    0.140045    0.890400    0.437869    11.00000   -1.20000
AFIX   0
C6    1    0.258538    0.429149    0.741243    11.00000    0.01502    0.01194 =
         0.00943   -0.00372   -0.00023   -0.00434
C5    1    0.201351    0.636985    0.670852    11.00000    0.01680    0.01341 =
         0.01236   -0.00683    0.00226   -0.00596
C7    1    0.284524    0.312833    0.936535    11.00000    0.02206    0.01579 =
         0.01103   -0.00338    0.00011   -0.00735
AFIX  43
H7    2    0.320387    0.174009    0.980489    11.00000   -1.20000
REM #####
AFIX   0
HKLF 4




REM  mo_PDJXC2a_0m in P-1
REM R1 =  0.0307 for    1837 Fo > 4sig(Fo)  and  0.0391 for all    2133 data
REM    104 parameters refined using      0 restraints

END

WGHT      0.0373      0.1239

REM Highest difference peak  0.517,  deepest hole -0.357,  1-sigma level  0.085
Q1    1   0.2635  0.0608  0.6663  11.00000  0.05    0.52
Q2    1   0.0758  0.7889  0.1187  11.00000  0.05    0.50
Q3    1   0.2913  0.8286  0.1691  11.00000  0.05    0.50
Q4    1   0.4804  0.0899  0.7293  11.00000  0.05    0.40
Q5    1   0.2626  0.3791  0.8358  11.00000  0.05    0.37
Q6    1   0.1873  0.6766  0.5775  11.00000  0.05    0.37
Q7    1   0.2949  0.3866  0.6872  11.00000  0.05    0.36
Q8    1   0.2189  0.5218  0.7153  11.00000  0.05    0.35
Q9    1   0.2626  0.4086  0.5246  11.00000  0.05    0.33
Q10   1   0.4250  0.0792  0.7976  11.00000  0.05    0.32
;
_shelx_res_checksum              48036
_shelx_hkl_file
;
  -1   0   0    0.71    0.08
  -1   0   0    0.61    0.05
  -1   0   0    0.76    0.04
  -1   0   0    0.65    0.06
   1   0   0    0.72    0.04
   1   0   0    0.65    0.05
   1   0   0    0.69    0.06
   2   0   0  861.36   39.24
   2   0   0  844.98   40.11
  -3   0   0   16.08    0.74
  -3   0   0   16.06    0.72
  -3   0   0   13.45    0.83
   3   0   0   14.09    0.72
   3   0   0   13.14    1.76
   3   0   0   15.17    0.77
  -4   0   0    1.39    0.25
   4   0   0    1.71    0.19
   4   0   0    1.64    1.19
  -5   0   0   27.03    1.49
   5   0   0   23.67    3.25
  -6   0   0   13.39    0.98
   6   0   0   15.97    3.28
   6   0   0   14.77    0.85
   7   0   0    4.30    0.47
   8   0   0    1.61    0.36
   8  -1   0    0.30    0.36
   7  -1   0   57.27    2.86
   6  -1   0   -1.32    2.30
   6  -1   0   -0.20    0.18
   5  -1   0   34.38    1.61
   5  -1   0   34.06    1.68
   5  -1   0   29.72    3.66
  -5   1   0   32.53    1.56
  -5   1   0   31.59    1.79
   4  -1   0   13.13    2.33
   4  -1   0   15.99    0.83
  -4   1   0   15.38    0.76
   3  -1   0    7.27    1.57
   3  -1   0    8.08    0.46
  -3   1   0    8.11    0.42
  -3   1   0    7.41    0.52
  -3   1   0    8.71    0.43
   2  -1   0  108.75    4.96
   2  -1   0  107.31    5.04
   2  -1   0   91.65    5.88
   2  -1   0  109.79    4.98
  -2   1   0  100.32    5.03
  -2   1   0  117.19    4.95
  -2   1   0  109.53    4.95
  -2   1   0  110.57    4.97
   1  -1   0   93.77    3.92
   1  -1   0   87.02    3.93
   1  -1   0   72.29    4.44
   1  -1   0   79.34    3.91
   1  -1   0   84.42    3.96
   1  -1   0   89.15    3.91
  -1   1   0   84.42    3.91
  -1   1   0   89.07    3.92
  -1   1   0   78.23    3.95
  -1   1   0   89.92    3.93
   0  -1   0   49.47    2.23
   0  -1   0   49.55    2.49
   0  -1   0   49.20    2.24
   0  -1   0   47.72    2.25
   0   1   0   51.26    2.24
   0   1   0   49.52    2.23
   0   1   0   48.88    2.25
   0   1   0   42.31    2.23
  -1  -1   0    2.62    0.15
  -1  -1   0    2.79    0.14
  -1  -1   0    2.61    0.53
  -1  -1   0    2.94    0.17
  -1  -1   0    2.84    0.18
   1   1   0    2.86    0.18
   1   1   0    3.01    0.14
   1   1   0    2.85    0.17
  -2  -1   0 1000.00   41.27
  -2  -1   0  738.72   39.77
   2   1   0  864.24   39.84
  -3  -1   0    3.98    0.23
  -3  -1   0    3.42    0.31
   3   1   0    3.69    0.26
   3   1   0    3.74    0.22
   3   1   0    4.07    0.33
  -4  -1   0  651.54   30.16
  -5  -1   0    0.18    0.16
   5   1   0   -0.22    1.15
   5   1   0    0.41    0.15
  -6  -1   0   78.31    4.05
   6   1   0   83.15    3.90
  -7  -1   0    3.16    0.56
   7   1   0    3.18    0.43
  -8  -1   0    0.38    0.57
   8   1   0   -0.02    0.28
  -9  -1   0    9.29    1.06
   9   1   0    7.47    0.80
   7  -2   0   -0.01    0.27
   6  -2   0    1.44    0.27
  -6   2   0    1.25    0.18
   5  -2   0   64.77    3.18
   5  -2   0   69.90    5.89
  -5   2   0   64.23    3.09
   4  -2   0    0.63    0.14
   4  -2   0    0.52    1.32
  -4   2   0    0.59    0.10
   3  -2   0  296.01   13.18
   3  -2   0  276.45   14.85
  -3   2   0  292.06   13.13
  -3   2   0  274.55   13.25
   2  -2   0    1.65    0.72
   2  -2   0    2.15    0.18
   2  -2   0    1.98    0.15
   2  -2   0    2.37    0.25
  -2   2   0    2.40    0.16
  -2   2   0    2.31    0.21
   1  -2   0  146.84    7.04
   1  -2   0  165.26    7.02
   1  -2   0  146.75    6.99
   1  -2   0  146.99    6.99
   1  -2   0  148.12    7.78
   1  -2   0  156.80    7.02
  -1   2   0  154.89    7.01
  -1   2   0  144.52    6.99
  -1   2   0  161.13    7.02
  -1   2   0  146.12    7.06
   0  -2   0  115.67    5.42
   0  -2   0  123.02    5.91
   0  -2   0  108.72    5.39
   0  -2   0  123.11    5.41
   0  -2   0  114.28    5.39
   0   2   0  113.97    5.39
   0   2   0  123.24    5.41
   0   2   0  114.50    5.42
  -1  -2   0   13.07    1.19
  -1  -2   0   14.22    0.69
  -1  -2   0   14.63    0.70
  -1  -2   0   14.47    0.70
   1   2   0   16.19    0.70
   1   2   0   13.32    0.73
   1   2   0   15.28    0.70
   1   2   0   14.23    0.69
  -2  -2   0  143.99    6.58
  -2  -2   0  132.81    6.65
   2   2   0  141.45    6.59
   2   2   0  141.09    6.64
   2   2   0  148.60    6.65
   2   2   0  149.85    6.59
  -3  -2   0    9.76    0.46
  -3  -2   0    9.01    0.54
  -3  -2   0    9.72    0.59
  -3  -2   0    9.41    1.88
   3   2   0    9.82    0.49
   3   2   0    9.57    0.55
  -4  -2   0    3.11    0.48
  -4  -2   0    3.81    1.76
  -4  -2   0    4.08    0.20
   4   2   0    3.69    0.30
  -5  -2   0    1.00    0.22
   5   2   0    1.69    0.23
  -6  -2   0   99.30    4.93
   6   2   0   93.27    7.11
   6   2   0  105.03    4.79
  -7  -2   0    0.11    0.30
   7   2   0    0.49    0.22
  -8  -2   0   71.67    3.93
   8   2   0   76.64    3.69
  -9  -2   0   -0.30    0.43
   9   2   0   -0.10    0.34
   7  -3   0    1.12    0.38
   6  -3   0    1.01    0.29
  -6   3   0    1.03    0.16
   5  -3   0   29.76    1.53
  -5   3   0   28.43    1.44
   4  -3   0    0.52    0.16
   4  -3   0    1.22    1.47
  -4   3   0    0.59    0.11
   3  -3   0    0.30    0.10
   3  -3   0    0.01    0.97
  -3   3   0    0.30    0.08
   2  -3   0   14.82    1.85
   2  -3   0   13.94    0.80
   2  -3   0   14.69    0.76
  -2   3   0   13.76    0.73
   1  -3   0  279.89   12.57
   1  -3   0  266.05   12.57
   1  -3   0  279.54   13.57
  -1   3   0  263.31   12.55
   0  -3   0    6.99    0.41
   0  -3   0    7.84    0.97
   0  -3   0    7.19    0.39
   0   3   0    7.57    0.39
   0   3   0    6.97    0.36
   0   3   0    6.87    0.42
  -1  -3   0  477.90   20.93
  -1  -3   0  475.25   21.77
  -1  -3   0  430.21   20.91
   1   3   0  437.83   20.96
  -2  -3   0    3.01    0.23
  -2  -3   0    3.08    0.24
  -2  -3   0    2.36    0.82
  -2  -3   0    3.16    0.19
  -2  -3   0    3.31    0.21
   2   3   0    3.15    0.18
  -3  -3   0   26.89    2.93
  -3  -3   0   29.43    1.50
  -3  -3   0   30.95    1.40
  -3  -3   0   29.84    1.49
  -4  -3   0   30.36    1.35
  -4  -3   0   24.25    3.87
  -4  -3   0   29.47    1.53
   4   3   0   27.87    1.52
  -5  -3   0    2.93    0.17
  -5  -3   0    2.54    0.37
  -5  -3   0    2.86    2.18
   5   3   0    2.53    0.29
   5   3   0    2.70    0.20
  -6  -3   0   27.79    1.62
   6   3   0   28.69    1.51
  -7  -3   0   -0.40    0.25
   7   3   0    0.20    0.20
   7   3   0   -0.15    0.11
  -8  -3   0    0.24    0.38
   8   3   0    0.37    0.25
  -9  -3   0    0.28    0.45
   9   3   0    0.36    0.39
  -7   4   0   13.27    0.96
   6  -4   0   11.49    0.83
  -6   4   0    9.64    0.64
   5  -4   0   13.75    0.89
  -5   4   0   13.49    0.76
   4  -4   0    0.34    0.19
   4  -4   0   -0.04    1.84
   3  -4   0   10.86    0.65
   3  -4   0   11.25    2.50
  -3   4   0   10.55    0.61
   2  -4   0    0.22    0.08
   2  -4   0    0.15    0.94
   2  -4   0    0.48    0.12
   2  -4   0    0.51    0.19
  -2   4   0    0.32    0.09
   1  -4   0   77.29    3.78
   1  -4   0   83.67    5.05
   1  -4   0   80.84    3.81
  -1   4   0   81.07    3.79
   0  -4   0   20.80    1.79
   0  -4   0   17.66    0.99
   0   4   0   18.70    0.95
  -1  -4   0    0.03    0.06
  -1  -4   0    0.21    0.53
   1   4   0    0.01    0.03
   1   4   0   -0.01    0.05
  -2  -4   0   32.71    1.61
  -2  -4   0   32.53    2.77
  -2  -4   0   33.75    1.58
   2   4   0   34.98    1.59
  -3  -4   0  105.21    5.21
  -3  -4   0  113.57    5.15
  -3  -4   0  113.52    5.24
   3   4   0  111.01    5.21
  -4  -4   0   -0.30    1.47
  -4  -4   0    0.31    0.07
  -4  -4   0    0.34    0.14
  -4  -4   0    0.14    0.10
   4   4   0    0.38    0.07
  -5  -4   0   50.11    2.63
  -5  -4   0   53.63    2.59
  -5  -4   0   49.96    5.39
  -5  -4   0   50.73    2.42
   5   4   0   53.96    2.46
  -6  -4   0   -0.62    2.77
  -6  -4   0    0.55    0.26
   6   4   0    0.45    0.19
  -7  -4   0    1.30    0.36
   7   4   0    1.42    0.21
   7   4   0    0.96    0.27
  -8  -4   0    2.87    0.51
   8   4   0    3.64    0.53
  -9  -4   0    0.26    0.47
   6  -5   0    3.19    0.53
  -6   5   0    2.58    0.32
   5  -5   0    6.30    0.72
  -5   5   0    7.08    0.51
   4  -5   0   12.42    0.82
  -4   5   0   12.04    0.72
   3  -5   0   44.57    2.27
   3  -5   0   49.51    4.46
  -3   5   0   44.26    2.22
   2  -5   0   19.41    1.09
   2  -5   0   22.46    2.80
   2  -5   0   19.93    1.02
   2  -5   0   19.12    1.07
  -2   5   0   20.05    1.05
   1  -5   0   23.46    1.24
   1  -5   0   24.76    1.18
  -1   5   0   23.48    1.17
  -1   5   0   23.20    1.21
   0  -5   0   -0.01    0.09
   0  -5   0    0.05    0.70
   0   5   0    0.08    0.05
   0   5   0    0.12    0.07
  -1  -5   0   19.94    2.12
  -1  -5   0   18.28    1.01
   1   5   0   18.88    0.93
   1   5   0   19.51    0.98
  -2  -5   0    0.92    0.16
  -2  -5   0    0.52    0.96
   2   5   0    0.82    0.09
  -3  -5   0   52.14    2.49
  -3  -5   0   47.97    4.17
  -3  -5   0   56.51    2.61
  -3  -5   0   51.30    2.53
   3   5   0   54.01    2.48
  -4  -5   0   22.49    1.19
  -4  -5   0   19.66    3.21
  -4  -5   0   20.41    1.18
   4   5   0   23.28    1.08
  -5  -5   0    1.19    0.27
  -5  -5   0    2.62    2.14
  -5  -5   0    1.29    0.23
   5   5   0    1.23    0.14
  -6  -5   0    6.72    0.66
  -6  -5   0    7.98    3.48
  -6  -5   0    7.97    0.59
  -7  -5   0    9.83    0.84
  -8  -5   0    0.33    0.39
  -9  -5   0    3.99    0.68
   5  -6   0    0.43    0.45
  -5   6   0   -0.05    0.19
   4  -6   0   34.12    1.84
  -4   6   0   32.92    1.72
   3  -6   0    0.33    0.24
  -3   6   0    0.53    0.16
   2  -6   0    2.28    0.36
   2  -6   0    1.59    1.56
  -2   6   0    2.70    0.30
   1  -6   0   10.22    2.21
   1  -6   0    6.94    0.51
  -1   6   0    6.93    0.46
  -1   6   0    6.55    0.42
   0  -6   0   17.43    0.99
   0  -6   0   17.35    2.44
   0   6   0   17.74    0.90
   0   6   0   17.95    0.95
  -1  -6   0   56.89    2.78
  -1  -6   0   55.86    4.18
   1   6   0   57.13    2.68
  -2  -6   0    3.30    1.48
  -2  -6   0    4.69    0.40
   2   6   0    4.61    0.28
  -3  -6   0   23.28    1.18
  -3  -6   0   24.25    1.12
  -3  -6   0   24.11    1.28
  -3  -6   0   18.97    3.03
   3   6   0   23.75    1.15
  -4  -6   0    0.47    0.15
  -4  -6   0    0.36    1.94
  -4  -6   0    0.64    0.18
   4   6   0    0.80    0.11
  -5  -6   0    1.67    2.40
  -5  -6   0    4.57    0.47
  -5  -6   0    5.15    0.45
  -6  -6   0    1.91    0.35
   6   6   0    1.81    0.20
  -7  -6   0   13.25    1.01
  -8  -6   0    8.95    0.90
   4  -7   0    6.15    0.82
  -4   7   0    6.53    0.57
   3  -7   0    0.18    0.33
   2  -7   0   16.83    1.07
  -2   7   0   17.37    0.98
   1  -7   0    0.89    0.22
   1  -7   0    1.00    0.19
  -1   7   0    1.37    0.20
  -1   7   0    1.09    0.22
   0  -7   0   39.59    3.92
   0  -7   0   40.72    2.08
   0   7   0   40.01    2.03
   0   7   0   40.95    1.97
  -1  -7   0    5.85    1.89
  -1  -7   0    6.16    0.50
   1   7   0    5.88    0.37
  -2  -7   0   -0.40    1.43
  -2  -7   0    1.01    0.20
   2   7   0    1.02    0.14
  -3  -7   0    4.62    0.44
   3   7   0    4.58    0.30
  -4  -7   0    3.29    0.40
  -4  -7   0    3.47    0.33
   4   7   0    3.25    0.24
  -5  -7   0   34.59    1.90
  -5  -7   0   37.37    1.99
   5   7   0   39.43    1.80
  -6  -7   0    0.17    0.22
  -6  -7   0   -0.11    0.29
  -7  -7   0   11.01    0.93
  -8  -7   0    0.81    0.49
  -3   8   0    8.10    0.70
   2  -8   0   40.67    2.17
  -2   8   0   39.75    2.07
   1  -8   0    0.65    0.29
  -1   8   0    0.04    0.18
   0  -8   0    7.54    0.64
   0   8   0    7.76    0.49
   0   8   0    7.62    0.56
  -1  -8   0    1.60    0.29
   1   8   0    1.66    0.22
   1   8   0    1.43    0.23
  -2  -8   0   13.17    0.88
   2   8   0   13.38    0.72
  -3  -8   0    3.60    0.47
   3   8   0    3.60    0.28
  -4  -8   0   15.06    1.01
   4   8   0   16.13    0.83
  -5  -8   0    6.15    0.77
   5   8   0    5.53    0.38
   1  -9   0    7.31    0.81
  -1   9   0    7.66    0.63
   0  -9   0   12.12    0.93
   0   9   0   11.19    0.71
   0   9   0   11.77    0.80
  -1  -9   0    3.34    0.57
   1   9   0    3.60    0.34
  -2  -9   0   33.40    1.90
   2   9   0   34.60    1.70
   3   9   0    3.25    0.29
  -4  -9   0    3.78    0.60
   4   9   0    4.77    0.36
  -5  -9   0    1.35    0.36
   5   9   0    1.83    0.23
   6   9   0    3.97    0.37
  -2 -10   0    2.78    0.53
   2  10   0    3.37    0.37
  -3 -10   0    5.56    0.77
   3  10   0    5.65    0.43
   5   9  -1   25.16    1.29
  -5  -9   1   22.84    1.50
   4   9  -1    6.06    0.44
  -4  -9   1    7.67    0.74
   3   9  -1    2.07    0.28
  -3  -9   1    2.37    0.42
   2   9  -1   -0.14    0.14
  -2  -9   1   -0.15    0.33
   1   9  -1    6.42    0.47
  -1  -9   1    5.42    0.72
   0  -9   1   16.17    1.17
   0  -9   1   15.98    0.96
  -7  -8   1   17.66    1.24
  -6  -8   1   -0.22    0.29
  -5  -8   1    6.39    0.65
   4   8  -1   -0.20    0.11
  -4  -8   1   -0.22    0.26
   3   8  -1   17.00    0.89
  -3  -8   1   16.64    1.08
   2   8  -1    9.50    0.57
  -2  -8   1   10.08    0.76
   1   8  -1   33.75    1.71
  -1  -8   1   34.11    1.85
   0   8  -1   15.39    1.00
   0   8  -1   14.94    0.88
   0  -8   1   16.13    1.02
   0  -8   1   15.65    0.90
  -1   8  -1    0.93    0.23
   1  -8   1    0.63    0.32
  -2   8  -1    0.09    0.24
   2  -8   1    0.70    0.38
  -8  -7   1    5.32    0.88
  -7  -7   1    4.16    0.59
  -7  -7   1    5.98    0.66
  -6  -7   1   -0.23    0.31
  -5  -7   1    3.47    0.50
  -5  -7   1    3.72    0.47
   4   7  -1    0.84    0.13
  -4  -7   1    0.57    0.21
  -4  -7   1    1.09    0.26
   3   7  -1   49.02    2.29
  -3  -7   1   46.16    2.43
   2   7  -1    0.35    0.10
  -2  -7   1    0.52    0.19
   1   7  -1    8.05    0.49
  -1  -7   1    8.56    0.62
   0   7  -1    0.07    0.10
   0  -7   1    0.17    0.18
  -1   7  -1   18.09    1.03
   1  -7   1   17.46    1.07
   1  -7   1   18.40    1.00
   2  -7   1   14.93    0.99
  -3   7  -1   16.52    1.02
   3  -7   1   18.05    1.16
  -4   7  -1   11.40    0.80
  -8  -6   1    0.07    0.43
  -7  -6   1    0.50    0.40
  -6  -6   1   11.58    0.82
  -6  -6   1   11.05    0.86
   5   6  -1   37.53    1.71
  -5  -6   1   32.55    1.85
  -5  -6   1   35.82    1.89
   4   6  -1   16.89    0.85
  -4  -6   1   15.92    0.94
  -4  -6   1   17.62    1.00
  -4  -6   1   14.76    3.36
   3   6  -1   40.02    1.79
  -3  -6   1   40.38    1.77
  -3  -6   1   30.46    3.75
  -3  -6   1   33.92    1.82
  -3  -6   1   38.19    1.94
   2   6  -1    0.72    0.11
  -2  -6   1    1.65    1.33
  -2  -6   1    0.41    0.16
   1   6  -1    6.28    0.37
  -1  -6   1    5.22    1.50
  -1  -6   1    6.00    0.48
   0   6  -1   -0.16    0.11
   0   6  -1    0.01    0.09
   0  -6   1    0.36    1.11
   0  -6   1   -0.01    0.14
  -1   6  -1   49.87    2.42
   1  -6   1   54.35    4.18
   1  -6   1   46.26    2.43
   1  -6   1   48.06    2.38
  -2   6  -1    2.61    0.31
   2  -6   1    3.15    0.37
   2  -6   1    2.56    0.28
  -3   6  -1    3.63    0.38
   3  -6   1    2.94    0.50
  -4   6  -1   -0.07    0.25
   4  -6   1   -0.06    0.32
  -5   6  -1    6.24    0.58
  -8  -5   1    4.23    0.66
  -7  -5   1    1.28    0.36
  -6  -5   1   26.51    1.62
  -6  -5   1   30.45    1.60
  -5  -5   1    4.94    2.24
  -5  -5   1    4.40    0.48
  -5  -5   1    5.18    0.46
   4   5  -1    2.53    0.18
  -4  -5   1    2.18    0.31
  -4  -5   1    2.39    0.31
  -4  -5   1    2.10    1.72
   3   5  -1   12.89    0.61
  -3  -5   1   12.53    0.62
  -3  -5   1   10.61    0.68
  -3  -5   1   10.24    2.21
  -3  -5   1   11.40    0.72
   2   5  -1   29.86    1.37
  -2  -5   1   30.29    1.34
  -2  -5   1   27.53    2.65
  -2  -5   1   26.99    1.47
  -2  -5   1   26.70    1.38
   1   5  -1  140.74    6.26
   1   5  -1  134.71    6.20
  -1  -5   1  131.13    6.29
  -1  -5   1  127.77    7.32
   0   5  -1   21.20    1.09
   0   5  -1   21.06    1.04
   0  -5   1   20.74    1.11
   0  -5   1   23.82    2.16
   0  -5   1   19.33    1.03
  -1   5  -1   53.01    2.58
  -1   5  -1   53.97    2.62
   1  -5   1   54.89    2.59
   1  -5   1   50.72    2.61
   1  -5   1   53.69    2.63
   1  -5   1   61.13    4.04
  -2   5  -1    0.78    0.15
   2  -5   1    0.36    0.11
   2  -5   1    0.39    1.36
   2  -5   1    0.65    0.17
  -3   5  -1    3.20    0.32
   3  -5   1    3.57    0.39
   3  -5   1    3.04    0.30
   3  -5   1    3.70    1.74
  -4   5  -1    0.81    0.20
   4  -5   1    1.28    0.28
  -5   5  -1   14.34    0.85
   5  -5   1   13.44    1.00
  -6   5  -1    3.47    0.45
   9   4  -1    0.99    0.41
  -9  -4   1    2.00    0.54
   8   4  -1   19.51    1.21
  -8  -4   1   18.07    1.36
   7   4  -1    1.00    0.25
  -7  -4   1    1.19    0.36
   6   4  -1   12.67    0.81
  -6  -4   1   12.06    0.90
   5   4  -1    0.98    0.21
  -5  -4   1    1.00    1.92
  -5  -4   1    0.98    0.12
  -5  -4   1    1.09    0.22
  -5  -4   1    1.22    0.25
   4   4  -1   20.79    0.96
  -4  -4   1   19.45    1.09
  -4  -4   1   18.84    1.09
  -4  -4   1   19.97    0.95
  -4  -4   1   15.49    2.82
   3   4  -1   20.39    0.95
  -3  -4   1   19.63    1.06
  -3  -4   1   19.19    1.04
  -3  -4   1   18.72    0.99
  -3  -4   1   20.60    2.56
   2   4  -1   83.80    3.90
  -2  -4   1   77.63    4.04
  -2  -4   1   83.00    3.92
  -2  -4   1   89.27    3.88
   1   4  -1   19.91    0.98
  -1  -4   1   19.88    0.97
  -1  -4   1   20.81    0.98
   0   4  -1    0.96    0.13
   0   4  -1    1.20    0.12
   0  -4   1    1.25    0.15
   0  -4   1    1.02    0.15
   0  -4   1    1.60    0.64
  -1   4  -1   21.22    1.04
  -1   4  -1   19.61    1.00
   1  -4   1   19.95    1.01
   1  -4   1   22.12    2.06
   1  -4   1   21.12    1.05
   1  -4   1   18.84    1.05
  -2   4  -1   19.94    1.04
  -2   4  -1   20.21    1.04
   2  -4   1   19.19    1.02
   2  -4   1   20.37    1.05
   2  -4   1   23.12    2.55
  -3   4  -1   87.64    4.18
   3  -4   1   93.97    6.38
   3  -4   1   84.53    4.17
   3  -4   1   89.25    4.21
  -4   4  -1    2.46    0.30
   4  -4   1    5.72    3.04
   4  -4   1    3.00    0.35
   4  -4   1    2.72    2.06
  -5   4  -1   22.27    1.20
   5  -4   1   24.11    1.30
  -6   4  -1    0.27    0.18
   9   3  -1    5.02    0.69
  -9  -3   1    3.93    0.69
   8   3  -1    3.55    0.55
  -8  -3   1    2.54    0.50
   7   3  -1   -0.25    0.20
  -7  -3   1    0.02    0.28
   6   3  -1    9.77    0.69
  -6  -3   1    9.76    0.78
   5   3  -1    8.80    0.60
   5   3  -1    9.07    0.48
  -5  -3   1    9.64    2.74
  -5  -3   1    8.77    0.65
  -4  -3   1  118.99    5.16
  -4  -3   1  111.12    5.35
  -4  -3   1  103.55    7.38
  -3  -3   1    6.28    0.44
  -3  -3   1    5.96    1.52
  -3  -3   1    6.41    0.33
   2   3  -1   41.45    1.90
  -2  -3   1   39.85    1.98
  -2  -3   1   35.23    2.80
  -2  -3   1   42.17    1.91
  -2  -3   1   41.94    1.92
  -2  -3   1   40.89    1.95
   1   3  -1   11.60    0.58
   1   3  -1   12.33    0.62
  -1  -3   1   10.26    0.74
  -1  -3   1   11.69    0.61
  -1  -3   1   12.09    1.16
  -1  -3   1   10.68    0.67
  -1  -3   1   13.21    0.60
  -1  -3   1   12.67    0.58
   0   3  -1   68.71    3.04
   0   3  -1   65.15    3.01
   0  -3   1   58.82    3.02
   0  -3   1   68.32    3.68
   0  -3   1   62.58    3.05
  -1   3  -1   50.84    2.40
  -1   3  -1   52.96    2.42
   1  -3   1   50.85    2.39
   1  -3   1   52.32    2.42
   1  -3   1   54.28    3.38
   1  -3   1   44.39    2.42
  -2   3  -1   56.38    2.64
  -2   3  -1   56.88    2.66
   2  -3   1   56.19    2.62
   2  -3   1   56.35    2.63
   2  -3   1   50.68    2.69
  -3   3  -1   19.21    0.99
   3  -3   1   19.23    2.66
   3  -3   1   19.67    1.00
   3  -3   1   19.07    0.99
  -4   3  -1    0.22    0.09
   4  -3   1    0.03    0.09
   4  -3   1   -0.44    2.89
   4  -3   1   -0.85    1.59
   4  -3   1   -0.16    0.13
  -5   3  -1    5.13    0.37
   5  -3   1    6.46    2.49
   5  -3   1    4.55    3.37
   5  -3   1    5.22    0.47
  -6   3  -1    1.72    0.22
   6  -3   1    2.02    0.31
   9   2  -1    0.25    0.36
  -9  -2   1   -0.13    0.49
   8   2  -1    0.08    0.27
   7   2  -1    9.68    0.68
  -7  -2   1    7.24    0.76
   6   2  -1   18.79    1.07
  -6  -2   1   17.72    1.17
   5   2  -1   11.73    0.72
  -5  -2   1   11.19    0.78
  -4  -2   1   19.28    1.11
   3   2  -1    7.68    0.49
  -3  -2   1    8.66    0.39
  -3  -2   1    8.04    0.42
  -3  -2   1    7.03    1.75
  -3  -2   1    7.60    0.51
   2   2  -1   59.95    2.88
   2   2  -1   61.29    2.81
   2   2  -1   67.67    2.82
  -2  -2   1   61.24    2.82
  -2  -2   1   50.90    3.66
  -2  -2   1   57.48    2.87
  -2  -2   1   62.33    2.81
  -2  -2   1   61.61    2.89
   1   2  -1   51.63    2.24
   1   2  -1   47.67    2.22
  -1  -2   1   50.74    2.23
  -1  -2   1   46.38    2.23
  -1  -2   1   43.48    2.27
  -1  -2   1   52.40    2.25
  -1  -2   1   41.74    2.62
   0   2  -1  247.82   11.73
   0   2  -1  241.69   11.74
   0  -2   1  257.02   11.74
   0  -2   1  276.00   12.40
   0  -2   1  262.04   11.73
   0  -2   1  249.82   11.72
   0  -2   1  248.14   11.70
  -1   2  -1    2.44    0.17
  -1   2  -1    2.33    0.17
   1  -2   1    2.42    0.18
   1  -2   1    2.52    0.15
   1  -2   1    2.40    0.20
   1  -2   1    2.46    0.16
   1  -2   1    2.63    0.17
   1  -2   1    2.12    0.60
  -2   2  -1    9.20    0.54
  -2   2  -1    9.42    0.51
   2  -2   1   10.09    0.50
   2  -2   1    8.70    0.57
   2  -2   1    9.07    1.56
  -3   2  -1    2.18    0.31
   3  -2   1    2.68    0.21
   3  -2   1    2.78    1.28
   3  -2   1    2.39    0.25
  -4   2  -1   22.34    1.13
   4  -2   1   22.40    3.02
   4  -2   1   23.40    1.16
   4  -2   1   22.47    1.15
  -5   2  -1   18.31    0.96
   5  -2   1   21.47    4.32
   5  -2   1   18.76    3.97
   5  -2   1   19.47    1.03
  -6   2  -1    8.72    0.53
   6  -2   1    9.77    0.59
   6  -2   1    9.34    0.65
   7  -2   1    7.33    0.67
   9   1  -1    2.28    0.46
  -9  -1   1    1.94    0.62
   8   1  -1    1.05    0.32
  -8  -1   1    1.19    0.52
   7   1  -1   15.19    0.98
  -7  -1   1   15.43    1.12
   6   1  -1    7.33    0.56
   6   1  -1    7.62    2.37
  -6  -1   1    6.59    0.63
   5   1  -1   -0.22    1.22
   5   1  -1    0.07    0.11
  -5  -1   1    0.26    0.17
   4   1  -1    0.95    0.95
   3   1  -1   46.85    2.31
  -3  -1   1   46.20    2.35
  -3  -1   1   50.25    2.24
   2   1  -1  126.84    6.22
   2   1  -1  135.38    6.14
   2   1  -1  142.25    6.23
   2   1  -1  130.74    6.16
  -2  -1   1  130.64    6.16
  -2  -1   1  124.21    6.23
  -2  -1   1  139.85    6.23
  -2  -1   1  139.57    6.14
   1   1  -1   12.61    0.69
   1   1  -1   14.22    0.66
   1   1  -1   13.47    0.65
  -1  -1   1   14.01    0.70
  -1  -1   1   13.86    0.65
  -1  -1   1   14.35    0.66
  -1  -1   1   15.06    0.69
  -1  -1   1   12.94    0.67
   0  -1   1   98.50    4.56
   0  -1   1  102.60    4.58
   0  -1   1   92.36    4.77
   0  -1   1   96.42    4.58
   0  -1   1   99.57    4.59
   0  -1   1  105.33    4.58
  -1   1  -1   42.05    1.94
  -1   1  -1   40.24    1.97
  -1   1  -1   42.13    1.94
   1  -1   1   42.29    1.95
   1  -1   1   45.08    1.93
   1  -1   1   37.29    1.97
   1  -1   1   41.23    1.94
   1  -1   1   36.00    2.50
   1  -1   1   46.17    1.94
  -2   1  -1   20.29    0.96
  -2   1  -1   19.24    1.02
  -2   1  -1   20.42    0.96
   2  -1   1   20.45    0.96
   2  -1   1   20.00    0.96
   2  -1   1   17.26    1.03
   2  -1   1   21.09    0.97
  -3   1  -1    5.76    0.32
  -3   1  -1    5.79    0.43
   3  -1   1    6.02    0.34
   3  -1   1    4.93    1.35
   3  -1   1    5.62    0.35
  -4   1  -1   35.14    1.66
   4  -1   1   35.44    1.69
   4  -1   1   35.05    1.69
   4  -1   1   31.10    3.31
  -5   1  -1    3.60    0.46
   5  -1   1    2.91    1.69
   5  -1   1    3.25    0.30
   6  -1   1    0.42    3.39
   6  -1   1    0.34    0.20
   7  -1   1    0.34    0.25
   8   0  -1    0.38    0.32
   7   0  -1    8.17    0.64
  -7   0   1    6.47    0.77
   6   0  -1    0.07    0.17
  -6   0   1    0.15    0.20
   5   0  -1    5.89    0.56
   5   0  -1    6.13    1.75
  -5   0   1    6.09    0.55
   4   0  -1   10.12    0.61
   4   0  -1    8.46    1.71
  -4   0   1   11.15    0.56
  -4   0   1    9.59    0.67
   3   0  -1   23.92    2.27
   3   0  -1   26.73    1.32
  -3   0   1   24.89    1.36
  -3   0   1   28.23    1.25
   2   0  -1   90.66    4.07
  -2   0   1   90.09    4.05
  -2   0   1   86.04    3.99
  -2   0   1   78.93    4.07
   1   0  -1   40.66    1.73
   1   0  -1   34.69    1.72
   1   0  -1   36.31    1.68
  -1   0   1   35.57    1.68
  -1   0   1   35.15    1.68
  -1   0   1   37.88    1.72
  -1   0   1   35.11    1.73
  -1   0  -1  115.01    5.09
  -1   0  -1  104.69    5.12
  -1   0  -1  116.99    5.10
   1   0   1  107.72    5.10
   1   0   1  100.86    5.12
   1   0   1  117.53    5.09
  -2   0  -1  110.85    5.42
  -2   0  -1  116.79    5.42
  -2   0  -1  117.03    5.35
  -2   0  -1  120.54    5.35
   2   0   1  107.95    5.42
   2   0   1  118.26    5.35
   2   0   1  119.15    5.36
  -3   0  -1   -0.02    0.08
   3   0   1    0.03    0.74
   3   0   1    0.00    0.05
   3   0   1    0.00    0.04
  -4   0  -1   39.29    1.99
   4   0   1   39.54    1.85
   4   0   1   33.68    3.33
  -5   0  -1    6.14    0.53
   5   0   1    4.80    0.37
   5   0   1    5.47    0.35
   5   0   1    4.50    1.85
  -6   0  -1    0.30    0.23
   6   0   1    0.32    0.16
   7   0   1    0.69    0.25
  -8   0  -1    2.88    0.58
   8   0   1    2.45    0.40
   8  -1  -1    0.60    0.36
   7  -1  -1    1.49    0.32
   6  -1  -1    1.52    0.28
  -6   1   1    1.34    0.33
   5  -1  -1   49.54    4.51
   5  -1  -1   47.90    2.38
  -5   1   1   49.04    2.23
  -5   1   1   45.13    2.49
   4  -1  -1    0.87    0.16
   4  -1  -1    0.31    1.05
  -4   1   1    0.81    0.23
  -4   1   1    0.87    0.09
   3  -1  -1   47.06    2.28
   3  -1  -1   43.03    3.45
  -3   1   1   45.96    2.34
  -3   1   1   51.36    2.21
  -3   1   1   47.18    2.20
   2  -1  -1    2.17    0.18
   2  -1  -1    2.12    0.74
   2  -1  -1    2.04    0.21
  -2   1   1    2.36    0.13
  -2   1   1    2.21    0.13
  -2   1   1    2.09    0.21
  -2   1   1    2.12    0.17
   1  -1  -1    0.08    0.02
   1  -1  -1    0.07    0.02
   1  -1  -1    0.07    0.02
   1  -1  -1    0.09    0.04
   1  -1  -1    0.05    0.04
   1  -1  -1   -0.01    0.26
  -1   1   1    0.08    0.02
  -1   1   1    0.09    0.03
  -1   1   1    0.10    0.05
   0  -1  -1  178.54    8.57
  -1  -1  -1    1.58    0.10
  -1  -1  -1    1.90    0.58
  -1  -1  -1    1.45    0.09
  -1  -1  -1    1.61    0.10
  -1  -1  -1    1.43    0.11
   1   1   1    1.59    0.09
   1   1   1    1.60    0.10
   1   1   1    1.54    0.10
   1   1   1    1.56    0.12
  -2  -1  -1  273.90   11.82
  -2  -1  -1  277.87   11.84
  -2  -1  -1  223.99   13.09
  -2  -1  -1  253.02   11.89
   2   1   1  254.31   11.90
  -3  -1  -1   33.39    1.78
  -3  -1  -1   35.42    1.69
  -3  -1  -1   28.97    3.22
   3   1   1   36.58    1.70
   3   1   1   36.37    1.69
   3   1   1   36.90    1.66
   3   1   1   37.74    1.97
  -4  -1  -1    6.72    2.13
   4   1   1    8.30    0.48
  -5  -1  -1    7.11    0.60
   5   1   1    7.98    0.49
   5   1   1    8.29    0.46
   5   1   1    7.19    2.11
  -6  -1  -1   19.78    1.20
   6   1   1   18.88    1.03
   6   1   1   13.33    3.33
  -7  -1  -1    0.87    0.33
   7   1   1    0.47    0.22
   7   1   1    0.79    0.16
  -8  -1  -1    8.83    0.92
   8   1   1    8.95    0.73
  -9  -1  -1   -0.30    0.46
   8  -2  -1    3.40    0.53
   7  -2  -1   16.69    1.09
   6  -2  -1    6.27    0.56
  -6   2   1    6.53    0.38
   5  -2  -1   34.82    3.96
   5  -2  -1   29.52    1.56
  -5   2   1   26.80    1.85
  -5   2   1   30.40    1.43
   4  -2  -1    0.78    0.15
   4  -2  -1    1.60    1.26
  -4   2   1    0.79    0.11
   3  -2  -1    4.02    0.30
  -3   2   1    3.67    0.22
  -3   2   1    4.20    0.35
  -3   2   1    3.56    0.23
   2  -2  -1    3.06    0.86
   2  -2  -1    2.58    0.21
   2  -2  -1    2.88    0.26
  -2   2   1    2.47    0.23
  -2   2   1    2.63    0.17
   1  -2  -1  202.42    9.39
   1  -2  -1  206.01    9.37
   1  -2  -1  204.49   10.17
   1  -2  -1  203.69    9.40
  -1   2   1  203.11    9.37
  -1   2   1  200.33    9.39
   0  -2  -1   26.84    1.25
   0  -2  -1   23.91    1.25
   0  -2  -1   28.63    1.82
   0  -2  -1   26.00    1.27
   0   2   1   27.28    1.24
   0   2   1   26.08    1.27
   0   2   1   27.73    1.26
   0   2   1   28.09    1.25
   0   2   1   25.48    1.24
  -1  -2  -1  167.29    7.30
  -1  -2  -1  150.73    7.30
  -1  -2  -1  157.20    8.10
  -1  -2  -1  162.52    7.30
  -1  -2  -1  158.99    7.32
   1   2   1  162.22    7.32
   1   2   1  148.03    7.31
   1   2   1  161.17    7.33
  -2  -2  -1    0.10    0.04
  -2  -2  -1    0.11    0.03
  -2  -2  -1    0.08    0.05
  -2  -2  -1    0.06    0.04
  -2  -2  -1    0.07    0.05
  -2  -2  -1    0.14    0.61
   2   2   1    0.07    0.02
   2   2   1    0.11    0.04
   2   2   1    0.08    0.07
  -3  -2  -1   10.42    0.51
  -3  -2  -1   11.77    0.59
  -3  -2  -1    9.83    0.62
   3   2   1   10.25    0.51
   3   2   1   10.29    0.78
   3   2   1   10.07    0.53
   3   2   1   10.65    0.57
  -4  -2  -1   99.55    7.77
  -4  -2  -1  118.66    5.26
   4   2   1  119.08    5.34
  -5  -2  -1    1.89    0.32
  -5  -2  -1    3.02    2.16
   5   2   1    1.97    0.19
   5   2   1    2.27    0.25
  -6  -2  -1   85.85    4.41
   6   2   1   91.08    4.20
   6   2   1   89.48    4.25
  -7  -2  -1    2.68    0.47
   7   2   1    2.90    0.39
  -8  -2  -1    3.61    0.75
   8   2   1    4.45    0.55
  -9  -2  -1    0.04    0.46
   9   2   1   -0.09    0.33
   7  -3  -1    2.44    0.44
   6  -3  -1    1.13    0.30
  -6   3   1    1.08    0.15
   5  -3  -1    1.13    0.25
   5  -3  -1    1.21    1.88
  -5   3   1    1.20    0.16
   4  -3  -1    7.14    0.50
   4  -3  -1    9.51    2.12
   4  -3  -1    7.61    0.54
  -4   3   1    7.73    0.44
   3  -3  -1   77.23    3.93
   3  -3  -1   83.63    5.53
  -3   3   1   83.65    3.81
   2  -3  -1    1.59    0.86
   2  -3  -1    1.47    0.18
   2  -3  -1    1.66    0.23
  -2   3   1    1.60    0.15
  -2   3   1    1.78    0.25
   1  -3  -1  153.86    7.32
   1  -3  -1  167.59    8.81
   1  -3  -1  164.86    7.30
  -1   3   1  152.75    7.26
  -1   3   1  143.78    7.31
  -1   3   1  163.72    7.29
   0  -3  -1   17.55    0.85
   0  -3  -1   19.00    1.58
   0  -3  -1   17.21    0.88
   0  -3  -1   17.18    0.83
   0   3   1   16.81    0.87
   0   3   1   16.79    0.82
   0   3   1   17.67    0.85
  -1  -3  -1    0.09    0.05
  -1  -3  -1   -0.02    0.03
  -1  -3  -1    0.02    0.03
  -1  -3  -1    0.20    0.45
  -1  -3  -1    0.05    0.02
   1   3   1    0.05    0.05
   1   3   1    0.04    0.03
   1   3   1    0.04    0.02
  -2  -3  -1    0.12    0.74
  -2  -3  -1    0.40    0.08
  -2  -3  -1    0.63    0.08
  -2  -3  -1    0.46    0.08
  -2  -3  -1    0.36    0.07
   2   3   1    0.51    0.10
   2   3   1    0.36    0.07
   2   3   1    0.44    0.06
  -3  -3  -1   96.08    4.52
  -3  -3  -1   95.85    4.49
  -3  -3  -1   81.58    6.15
  -3  -3  -1   98.00    4.41
   3   3   1  102.32    4.44
  -4  -3  -1   13.88    2.77
  -4  -3  -1   16.15    0.77
  -4  -3  -1   15.33    0.91
  -5  -3  -1   33.76    4.61
  -5  -3  -1   37.99    1.75
  -5  -3  -1   36.99    1.96
   5   3   1   37.56    1.86
   5   3   1   36.57    1.78
  -6  -3  -1    3.48    2.74
  -6  -3  -1    3.07    0.45
   6   3   1    2.86    0.33
   6   3   1    3.38    0.26
  -7  -3  -1    2.07    0.42
   7   3   1    2.41    0.37
  -8  -3  -1   45.85    2.58
   8   3   1   46.07    2.36
  -9  -3  -1    0.27    0.47
   9   3   1    0.65    0.34
   7  -4  -1    0.16    0.41
   6  -4  -1    4.96    0.63
  -6   4   1    4.30    0.37
   5  -4  -1    3.34    0.46
  -5   4   1    3.17    0.30
   4  -4  -1   24.41    1.28
   4  -4  -1   26.97    3.61
   4  -4  -1   26.39    1.38
  -4   4   1   25.12    1.28
   3  -4  -1   21.11    2.70
   3  -4  -1   17.84    0.93
   3  -4  -1   18.55    1.01
  -3   4   1   17.77    0.94
   2  -4  -1    4.10    0.35
   2  -4  -1    4.16    0.33
   2  -4  -1    4.08    1.19
  -2   4   1    3.86    0.28
   1  -4  -1    3.53    0.24
   1  -4  -1    3.39    0.97
  -1   4   1    3.19    0.20
   0  -4  -1    3.05    0.85
   0  -4  -1    2.11    0.22
   0   4   1    2.09    0.17
   0   4   1    1.93    0.13
  -1  -4  -1  215.65   10.09
  -1  -4  -1  211.64   11.20
   1   4   1  225.28   10.06
  -2  -4  -1    3.31    1.13
  -2  -4  -1    3.44    0.22
  -2  -4  -1    3.39    0.27
   2   4   1    3.84    0.21
   2   4   1    4.13    0.24
  -3  -4  -1  146.75    6.57
  -3  -4  -1  132.45    8.42
   3   4   1  140.40    6.52
  -4  -4  -1    4.18    0.36
  -4  -4  -1    3.71    0.24
  -4  -4  -1    2.95    1.92
   4   4   1    4.21    0.26
  -5  -4  -1    0.12    0.07
  -5  -4  -1   -0.11    0.16
  -5  -4  -1   -0.03    2.22
   5   4   1    0.26    0.08
  -6  -4  -1    3.47    0.25
  -6  -4  -1    3.85    0.50
  -6  -4  -1    4.24    3.10
   6   4   1    3.67    0.29
  -7  -4  -1   18.72    1.24
  -8  -4  -1    3.21    0.58
  -9  -4  -1    8.80    1.05
   6  -5  -1   10.09    0.90
  -6   5   1    8.93    0.63
   5  -5  -1    5.29    0.64
  -5   5   1    4.76    0.41
   4  -5  -1    8.44    0.66
  -4   5   1    8.22    0.53
   3  -5  -1    5.64    1.81
   3  -5  -1    5.12    0.44
  -3   5   1    4.93    0.37
   2  -5  -1    9.56    0.62
   2  -5  -1    8.91    0.59
   2  -5  -1   11.10    2.01
   2  -5  -1    8.76    0.58
  -2   5   1    8.61    0.53
   1  -5  -1   15.03    0.71
   1  -5  -1   12.98    0.78
   1  -5  -1   17.96    2.14
  -1   5   1   13.39    0.71
  -1   5   1   13.27    0.75
   0  -5  -1   40.92    3.17
   0  -5  -1   37.76    1.90
   0   5   1   38.58    1.82
   0   5   1   37.55    1.87
  -1  -5  -1   42.68    2.08
   1   5   1   42.61    1.99
   1   5   1   41.73    2.07
  -2  -5  -1    5.47    1.47
  -2  -5  -1    4.28    0.33
   2   5   1    4.10    0.24
  -3  -5  -1    6.52    1.80
  -3  -5  -1    8.23    0.53
  -3  -5  -1    7.87    0.47
   3   5   1    8.44    0.43
  -4  -5  -1    0.00    0.13
  -4  -5  -1    0.03    0.10
  -4  -5  -1   -0.63    1.64
   4   5   1    0.03    0.06
  -5  -5  -1   86.53    7.70
  -5  -5  -1  106.71    4.88
  -5  -5  -1  102.66    4.91
   5   5   1  106.64    4.76
  -6  -5  -1    3.56    3.12
  -6  -5  -1    1.38    0.28
   6   5   1    1.25    0.15
  -7  -5  -1   43.16    2.35
  -8  -5  -1    0.21    0.36
  -9  -5  -1   -0.39    0.47
   5  -6  -1    0.02    0.41
  -5   6   1    0.95    0.23
   4  -6  -1    0.35    0.30
  -4   6   1    0.63    0.19
   3  -6  -1    3.80    0.47
  -3   6   1    3.52    0.35
   2  -6  -1   34.94    3.55
   2  -6  -1   30.85    1.64
  -2   6   1   29.71    1.57
   1  -6  -1   29.88    1.59
   1  -6  -1   33.52    3.28
  -1   6   1   30.14    1.55
  -1   6   1   30.41    1.49
   0  -6  -1   20.83    1.16
   0  -6  -1   23.21    2.72
   0   6   1   21.11    1.12
   0   6   1   21.93    1.06
  -1  -6  -1   10.34    0.65
  -1  -6  -1   10.56    2.00
   1   6   1   10.87    0.61
   1   6   1   10.35    0.55
  -2  -6  -1    4.17    0.36
  -2  -6  -1    3.07    1.43
   2   6   1    4.28    0.26
  -3  -6  -1   19.74    1.04
  -3  -6  -1   17.56    0.90
  -3  -6  -1   13.57    2.81
   3   6   1   19.50    0.91
  -4  -6  -1   10.93    0.69
  -4  -6  -1    9.33    2.66
  -4  -6  -1   10.30    0.63
   4   6   1   11.20    0.57
  -5  -6  -1   17.58    1.08
  -5  -6  -1   17.16    4.01
   5   6   1   20.34    0.96
  -6  -6  -1    0.21    0.25
   6   6   1    0.27    0.09
  -7  -6  -1    5.19    0.65
  -8  -6  -1    0.37    0.40
  -9  -6  -1   25.03    1.74
   4  -7  -1   26.84    1.59
  -4   7   1   25.81    1.42
   3  -7  -1    3.37    0.48
  -3   7   1    4.88    0.43
   2  -7  -1   57.96    2.90
   2  -7  -1   57.11    2.90
  -2   7   1   57.79    2.83
   1  -7  -1    2.03    0.34
   1  -7  -1    1.96    1.75
  -1   7   1    1.93    0.23
  -1   7   1    2.10    0.27
   0  -7  -1    0.30    0.17
   0  -7  -1    0.70    1.54
   0   7   1    0.36    0.11
   0   7   1    0.28    0.12
  -1  -7  -1   19.15    3.01
  -1  -7  -1   20.05    1.12
   1   7   1   19.73    0.99
  -2  -7  -1   38.68    1.96
  -2  -7  -1   33.46    3.89
   2   7   1   39.51    1.83
  -3  -7  -1   44.17    2.19
  -3  -7  -1   35.64    4.35
   3   7   1   44.62    2.04
  -4  -7  -1   12.38    0.69
  -4  -7  -1   10.97    2.99
  -4  -7  -1   13.47    0.82
   4   7   1   12.83    0.67
  -5  -7  -1    4.62    0.45
  -5  -7  -1    3.79    0.44
   5   7   1    4.32    0.30
  -6  -7  -1    1.01    0.30
   6   7   1    0.62    0.12
  -7  -7  -1    8.01    0.76
  -8  -7  -1    0.81    0.50
  -3   8   1    1.67    0.30
   2  -8  -1    0.25    0.29
  -2   8   1    0.41    0.21
   1  -8  -1    2.49    0.39
  -1   8   1    2.21    0.29
  -1   8   1    2.22    0.32
   0  -8  -1   57.09    2.96
   0   8   1   59.20    2.90
   0   8   1   60.64    2.83
  -1  -8  -1    2.92    0.41
   1   8   1    2.76    0.24
  -2  -8  -1   65.09    3.23
   2   8   1   64.51    3.07
  -3  -8  -1    3.52    0.43
   3   8   1    3.64    0.26
  -4  -8  -1    0.12    0.20
   4   8   1   -0.08    0.08
  -5  -8  -1   20.82    1.24
   5   8   1   20.73    1.06
   6   8   1   12.90    0.74
   7   8   1   21.04    1.10
   2  -9  -1   48.17    2.53
  -2   9   1   44.87    2.37
   1  -9  -1   13.77    1.04
  -1   9   1   14.59    0.91
   0  -9  -1   53.00    3.33
   0   9   1   59.58    2.76
   0   9   1   56.33    2.82
  -1  -9  -1    2.76    0.44
   1   9   1    2.31    0.34
  -2  -9  -1    0.13    0.24
   2   9   1    0.09    0.13
  -4  -9  -1   45.14    2.40
   4   9   1   45.74    2.20
  -5  -9  -1    0.44    0.26
   5   9   1    0.26    0.12
  -6  -9  -1   29.74    1.92
   6   9   1   26.81    1.40
  -1 -10  -1    5.27    0.74
   1  10   1    3.57    0.54
   1  10   1    4.58    0.43
  -2 -10  -1   67.00    3.44
   2  10   1   66.58    3.21
  -3 -10  -1   11.27    0.96
   3  10   1   12.63    0.71
  -4 -10  -1   45.27    2.46
   4  10   1   44.90    2.21
  -5 -10  -1    1.33    0.37
   5  10   1    0.63    0.17
   3   9  -2   15.31    0.92
  -3  -9   2   18.40    1.18
   2   9  -2    0.96    0.22
  -2  -9   2    0.70    0.38
  -6  -8   2    6.23    0.78
  -5  -8   2   43.09    2.35
  -4  -8   2    7.75    0.72
   3   8  -2   43.01    2.11
  -2  -8   2    0.90    0.29
   1   8  -2    0.19    0.14
  -1  -8   2   -0.17    0.43
   0  -8   2    0.35    0.23
   0  -8   2    0.75    0.31
  -1   8  -2   17.14    1.05
   1  -8   2   17.36    1.16
   1  -8   2   16.71    1.01
  -7  -7   2   10.08    1.14
  -6  -7   2    6.99    0.77
  -6  -7   2    6.61    0.68
  -4  -7   2   -0.18    0.21
   3   7  -2    3.60    0.28
  -3  -7   2    3.49    0.47
   2   7  -2   13.53    0.74
  -2  -7   2   13.81    0.89
   1   7  -2   75.77    3.61
  -1  -7   2   72.27    3.63
   0   7  -2    5.67    0.51
   0   7  -2    5.12    0.38
   0  -7   2    4.91    0.54
   0  -7   2    4.53    0.40
  -1   7  -2   36.41    2.19
   1  -7   2   39.21    2.00
  -2   7  -2   -0.25    0.18
   2  -7   2   -0.02    0.26
   2  -7   2   -0.06    0.31
  -3   7  -2    0.17    0.22
  -8  -6   2   36.15    2.21
  -7  -6   2    4.91    0.77
  -6  -6   2   38.42    1.97
  -6  -6   2   31.93    1.93
  -5  -6   2   10.84    0.81
  -5  -6   2   12.44    0.83
   4   6  -2    0.54    0.11
  -4  -6   2    0.38    0.19
  -4  -6   2    0.82    1.81
  -4  -6   2    0.11    0.26
   3   6  -2   50.28    2.15
  -3  -6   2   46.13    2.30
  -3  -6   2   42.11    2.19
  -3  -6   2   36.75    3.78
   2   6  -2   14.91    0.77
  -2  -6   2   14.87    0.90
  -2  -6   2   14.54    0.80
   1   6  -2   38.51    1.83
  -1  -6   2   35.35    3.43
  -1  -6   2   38.18    1.94
   0   6  -2    0.04    0.09
   0   6  -2    0.02    0.13
   0  -6   2    0.24    0.17
  -1   6  -2    3.00    0.35
   1  -6   2    3.17    0.31
   1  -6   2    3.40    0.38
  -2   6  -2    6.60    0.49
   2  -6   2    6.56    0.55
   2  -6   2    5.32    0.46
  -3   6  -2   44.26    2.44
   3  -6   2   47.23    2.35
  -4   6  -2   -0.24    0.20
  -8  -5   2    5.87    1.02
  -7  -5   2   -0.10    0.29
  -7  -5   2   -0.06    0.34
  -6  -5   2   13.55    1.01
  -6  -5   2   15.50    1.00
  -5  -5   2    9.20    0.67
  -5  -5   2    5.51    2.64
  -5  -5   2    7.92    0.66
  -4  -5   2   84.45    6.39
  -4  -5   2   93.61    4.56
  -4  -5   2  102.95    4.59
   3   5  -2    5.91    0.34
  -3  -5   2    5.48    0.44
  -3  -5   2    5.80    0.45
  -3  -5   2    4.25    1.53
   2   5  -2   43.80    1.99
  -2  -5   2   40.91    2.10
  -2  -5   2   37.92    3.13
  -2  -5   2   42.58    1.98
  -2  -5   2   41.82    2.02
   1   5  -2   16.84    0.86
   1   5  -2   15.34    0.79
  -1  -5   2   14.07    1.80
  -1  -5   2   14.85    0.88
  -1  -5   2   14.88    0.81
  -1  -5   2   16.22    0.80
   0   5  -2    3.78    0.27
   0  -5   2    3.54    0.36
   0  -5   2    4.22    0.35
   0  -5   2    4.50    1.18
  -1   5  -2   63.28    3.00
   1  -5   2   62.54    3.01
   1  -5   2   53.60    3.09
   1  -5   2   62.37    2.97
   1  -5   2   70.74    4.41
  -2   5  -2    9.04    0.55
   2  -5   2    6.56    1.81
   2  -5   2    8.03    0.55
   2  -5   2    7.99    0.52
  -3   5  -2   31.75    1.65
   3  -5   2   32.77    1.65
   3  -5   2   31.78    1.66
  -4   5  -2   -0.03    0.16
   4  -5   2    0.25    0.30
  -5   5  -2    0.98    0.24
   8   4  -2    5.00    0.66
  -8  -4   2    3.95    0.84
   7   4  -2    6.80    0.66
  -7  -4   2    7.57    0.76
   6   4  -2   40.90    2.06
  -6  -4   2   36.77    2.10
   5   4  -2    7.42    0.57
  -5  -4   2    7.63    0.40
  -5  -4   2    7.11    0.60
   4   4  -2   29.00    1.52
  -4  -4   2   29.09    1.56
  -4  -4   2   25.65    3.31
  -4  -4   2   28.35    1.52
   3   4  -2    3.70    0.22
  -3  -4   2    3.05    1.28
  -3  -4   2    3.66    0.33
  -3  -4   2    2.97    0.32
   2   4  -2   19.88    0.91
  -2  -4   2   15.79    1.85
  -2  -4   2   17.13    1.00
  -2  -4   2   19.77    0.91
  -2  -4   2   18.43    0.96
   1   4  -2    6.35    0.35
  -1  -4   2    6.24    0.37
  -1  -4   2    6.29    0.43
  -1  -4   2    5.96    1.09
   0   4  -2  112.61    5.08
   0   4  -2  110.22    5.04
   0   4  -2  106.98    5.02
   0  -4   2  115.47    5.88
   0  -4   2   95.36    5.05
   0  -4   2  108.75    5.08
  -1   4  -2    0.17    0.09
   1  -4   2    0.14    0.08
   1  -4   2    0.43    0.73
   1  -4   2    0.20    0.10
   1  -4   2    0.10    0.17
  -2   4  -2   21.56    1.13
   2  -4   2   21.21    1.11
   2  -4   2   22.96    2.66
   2  -4   2   21.78    1.12
  -3   4  -2    3.39    0.32
   3  -4   2    5.65    1.98
   3  -4   2    5.49    3.03
   3  -4   2    4.22    0.37
   3  -4   2    3.68    0.32
  -4   4  -2    0.87    0.20
   4  -4   2    1.00    0.25
   4  -4   2    1.12    0.19
  -5   4  -2   26.96    1.40
   9   3  -2    3.01    0.51
  -9  -3   2    2.48    0.69
   8   3  -2   -0.01    0.50
  -8  -3   2    0.24    0.48
   7   3  -2   15.39    1.03
  -7  -3   2   16.18    1.16
   6   3  -2    0.74    0.22
  -6  -3   2    0.65    0.28
   5   3  -2    0.12    0.16
   5   3  -2   -0.06    0.05
  -5  -3   2   -0.10    0.17
   4   3  -2   13.53    0.80
  -4  -3   2   13.01    0.82
  -4  -3   2   13.43    0.65
   3   3  -2   30.23    1.51
  -3  -3   2   30.15    1.39
  -3  -3   2   29.32    1.50
  -3  -3   2   26.18    2.61
  -2  -3   2  147.03    6.21
  -2  -3   2  117.49    6.91
  -2  -3   2  135.76    6.25
   1   3  -2    4.98    0.31
  -1  -3   2    5.14    0.29
  -1  -3   2    4.76    0.33
  -1  -3   2    4.96    0.79
   0   3  -2   77.55    3.59
   0  -3   2   72.84    3.64
   0  -3   2   82.96    4.16
   0  -3   2   73.59    3.58
   0  -3   2   75.07    3.60
  -1   3  -2    5.47    0.35
  -1   3  -2    5.58    0.34
   1  -3   2    5.34    0.33
   1  -3   2    4.95    0.39
   1  -3   2    5.61    1.15
   1  -3   2    5.58    0.33
  -2   3  -2    6.49    0.40
   2  -3   2    6.10    0.39
   2  -3   2    4.94    1.96
   2  -3   2    7.65    1.64
   2  -3   2    6.57    0.39
  -3   3  -2    0.16    0.08
   3  -3   2   -1.11    2.55
   3  -3   2    0.30    1.35
   3  -3   2    0.14    0.11
   3  -3   2    0.03    0.09
  -4   3  -2   38.40    1.90
   4  -3   2   35.62    5.03
   4  -3   2   38.09    4.35
   4  -3   2   38.21    1.91
   4  -3   2   40.46    1.90
  -5   3  -2    4.10    0.34
   5  -3   2    3.76    0.41
  -6   3  -2    5.74    0.43
   9   2  -2    7.44    0.86
  -9  -2   2    7.29    1.08
   8   2  -2    0.09    0.28
  -8  -2   2   -0.21    0.41
   7   2  -2    6.83    0.64
  -7  -2   2    7.44    0.75
   6   2  -2    0.83    0.24
  -6  -2   2    1.01    0.28
   5   2  -2    5.91    0.48
  -5  -2   2    5.61    0.53
   4   2  -2    2.55    0.28
  -4  -2   2    2.70    0.33
   3   2  -2   14.64    0.84
  -3  -2   2   14.06    0.85
  -3  -2   2   15.92    0.76
  -3  -2   2   15.80    0.73
   2   2  -2   19.87    1.08
  -2  -2   2   21.96    1.07
  -2  -2   2   22.30    1.05
  -2  -2   2   20.55    1.00
  -2  -2   2   20.12    1.00
   1   2  -2   12.98    0.61
   1   2  -2   12.25    0.67
   1   2  -2   12.47    0.65
   1   2  -2   12.00    0.65
  -1  -2   2   13.99    0.63
  -1  -2   2   11.25    0.83
  -1  -2   2   11.79    0.60
  -1  -2   2   13.05    0.63
  -1  -2   2   12.60    0.68
   0   2  -2   10.62    0.53
   0   2  -2   10.45    0.53
   0   2  -2   11.03    0.55
   0  -2   2   10.79    0.57
   0  -2   2   10.84    0.86
   0  -2   2    9.86    0.55
   0  -2   2   10.34    0.55
  -1   2  -2   27.26    1.29
  -1   2  -2   27.96    1.28
  -1   2  -2   24.97    1.31
   1  -2   2   21.12    2.38
   1  -2   2   27.42    1.27
   1  -2   2   26.78    2.05
   1  -2   2   24.92    1.31
   1  -2   2   28.26    1.27
  -2   2  -2  115.04    5.11
   2  -2   2   93.77    6.90
   2  -2   2  119.34    5.05
   2  -2   2  107.00    6.40
   2  -2   2  105.06    5.09
  -3   2  -2    0.02    0.06
   3  -2   2    0.02    0.07
   3  -2   2   -0.87    1.04
   3  -2   2    0.03    0.07
  -4   2  -2   35.69    1.74
   4  -2   2   36.12    1.74
   4  -2   2   35.62    1.76
   4  -2   2   35.48    3.93
  -5   2  -2    1.04    0.15
   5  -2   2   -0.27    2.01
   5  -2   2    1.13    0.18
   5  -2   2    1.06    0.19
   5  -2   2    0.90    2.68
   6  -2   2    2.10    0.35
   9   1  -2    8.70    1.21
  -9  -1   2    6.97    1.10
   8   1  -2    0.16    0.28
  -8  -1   2   -0.40    0.39
   7   1  -2   -0.12    0.24
  -7  -1   2    0.17    0.29
   6   1  -2    1.37    0.28
  -6  -1   2    1.21    0.30
   5   1  -2   40.61    2.01
  -5  -1   2   37.78    2.08
   4   1  -2    3.47    0.32
  -4  -1   2    3.26    0.23
  -4  -1   2    3.54    0.35
   3   1  -2   35.66    1.79
  -3  -1   2   38.86    1.70
  -3  -1   2   33.74    1.82
   2   1  -2    5.70    0.29
   2   1  -2    5.97    0.37
  -2  -1   2    5.45    0.35
  -2  -1   2    6.16    0.30
  -2  -1   2    5.99    0.30
  -2  -1   2    6.07    0.38
  -2  -1   2    5.83    0.37
   1   1  -2    1.98    0.16
   1   1  -2    1.98    0.11
   1   1  -2    1.79    0.12
   1   1  -2    1.78    0.16
  -1  -1   2    2.12    0.17
  -1  -1   2    1.95    0.14
  -1  -1   2    1.88    0.13
  -1  -1   2    1.75    0.11
   0   1  -2   58.16    2.71
   0   1  -2   55.61    2.72
   0   1  -2   63.62    2.73
   0  -1   2   58.17    2.71
   0  -1   2   60.31    2.73
   0  -1   2   62.39    2.74
   0  -1   2   59.11    2.72
   0  -1   2   56.85    2.71
   0  -1   2   50.65    3.09
  -1   1  -2    1.86    0.15
  -1   1  -2    1.92    0.14
   1  -1   2    1.96    0.13
   1  -1   2    1.66    0.14
   1  -1   2    1.17    0.51
   1  -1   2    1.85    0.12
   1  -1   2    2.07    0.13
   1  -1   2    1.62    0.17
   1  -1   2    1.70    0.85
   1  -1   2    1.82    0.13
  -2   1  -2   79.60    3.66
   2  -1   2   67.71    5.25
   2  -1   2   70.05    3.68
   2  -1   2   82.88    3.61
   2  -1   2   73.02    4.74
   2  -1   2   86.36    3.58
   3  -1   2    4.93    1.43
   3  -1   2    5.72    0.35
  -4   1  -2    0.42    0.08
   4  -1   2    0.60    1.30
   4  -1   2    0.50    0.10
   4  -1   2    0.53    0.12
   5  -1   2    1.87    2.70
   5  -1   2    1.55    0.21
   5  -1   2    1.70    1.72
   5  -1   2    1.71    0.23
   6  -1   2   31.25    1.57
   8   0  -2    2.09    0.43
  -8   0   2    1.77    0.47
   7   0  -2   28.83    1.61
  -7   0   2   28.53    1.77
   6   0  -2    1.04    0.23
  -6   0   2    1.35    0.32
   5   0  -2   54.56    2.63
   5   0  -2   51.01    4.53
  -5   0   2   51.86    2.72
   4   0  -2    6.09    0.45
   4   0  -2    5.79    1.39
  -4   0   2    6.68    0.35
  -4   0   2    5.95    0.50
   3   0  -2    0.06    0.07
  -3   0   2    0.19    0.05
  -3   0   2    0.16    0.09
   2   0  -2    2.84    0.22
   2   0  -2    3.37    0.24
   2   0  -2    2.81    0.14
  -2   0   2    2.93    0.14
  -2   0   2    2.51    0.23
  -2   0   2    2.75    0.14
  -2   0   2    1.73    0.57
  -2   0   2    2.86    0.17
  -2   0   2    2.72    0.22
   1   0  -2  150.41    6.92
   1   0  -2  143.34    6.91
  -1   0   2  159.96    6.91
  -1   0   2  129.25    7.20
  -1   0   2  158.92    6.87
  -1   0   2  153.24    6.92
   0   0  -2   35.73    1.73
   0   0  -2   38.61    1.73
   0   0   2   36.13    1.73
   0   0   2   38.43    1.73
   0   0   2   36.42    1.72
   0   0   2   34.15    1.72
   0   0   2   37.60    1.70
   0   0   2   35.68    1.71
   0   0   2   38.03    2.05
  -1   0  -2   76.65    3.50
  -1   0  -2   80.14    3.47
   1   0   2   74.12    3.47
   1   0   2   76.92    3.48
   1   0   2   73.93    3.47
   1   0   2   66.05    4.35
  -2   0  -2    0.76    0.12
  -2   0  -2    0.63    0.09
  -2   0  -2   -0.38    0.75
   2   0   2    0.54    0.12
   2   0   2    0.55    0.07
   2   0   2    0.62    0.08
   2   0   2    0.44    0.06
  -3   0  -2    0.02    0.08
   3   0   2   -0.03    0.05
   3   0   2    0.04    0.04
  -4   0  -2   52.81    2.62
   4   0   2   53.86    2.49
   4   0   2   45.53    4.18
   4   0   2   53.80    2.46
  -5   0  -2    0.88    0.24
   5   0   2    0.70    0.13
   5   0   2    0.20    1.52
   5   0   2    0.74    0.14
  -6   0  -2   29.71    1.71
   6   0   2   23.93    4.06
   6   0   2   31.54    1.58
   6   0   2   30.35    5.48
   6   0   2   30.13    1.50
  -7   0  -2    0.66    0.33
   7   0   2    0.03    0.21
   8  -1  -2    8.31    0.83
   7  -1  -2    3.22    0.51
  -7   1   2    3.47    0.58
   6  -1  -2    3.03    0.42
  -6   1   2    1.89    0.38
   5  -1  -2    3.96    1.90
   5  -1  -2    3.18    0.36
  -5   1   2    3.56    0.45
   4  -1  -2    1.19    1.23
   4  -1  -2    0.98    0.19
  -4   1   2    0.90    0.21
  -4   1   2    0.85    0.09
  -4   1   2    1.10    0.13
   3  -1  -2  160.93    9.29
  -3   1   2  173.74    7.94
  -3   1   2  192.38    7.95
  -3   1   2  161.87    8.09
   2  -1  -2    4.89    0.31
   2  -1  -2    4.04    0.29
   2  -1  -2    4.18    0.91
  -2   1   2    4.55    0.22
  -2   1   2    4.26    0.22
  -2   1   2    4.10    0.31
  -2   1   2    4.49    0.30
  -1   1   2  373.70   16.97
  -1   1   2  363.38   16.96
   0  -1  -2   39.24    2.02
   0  -1  -2   44.40    2.04
   0  -1  -2   43.49    2.01
   0  -1  -2   44.62    2.04
   0   1   2   42.97    2.01
   0   1   2   43.70    2.03
   0   1   2   46.50    2.54
   0   1   2   43.57    2.04
  -1  -1  -2    3.36    0.19
  -1  -1  -2    3.44    0.18
  -1  -1  -2    3.32    0.21
  -1  -1  -2    3.20    0.19
   1   1   2    3.53    0.19
   1   1   2    3.41    0.19
   1   1   2    3.35    0.18
  -2  -1  -2    1.61    0.16
  -2  -1  -2    0.76    0.82
  -2  -1  -2    1.59    0.13
  -2  -1  -2    1.49    0.11
   2   1   2    1.72    0.11
   2   1   2    1.68    0.12
   2   1   2    1.48    0.17
  -3  -1  -2   53.44    4.73
  -3  -1  -2   62.11    3.04
   3   1   2   68.60    2.94
   3   1   2   64.06    2.96
  -4  -1  -2   19.33    3.47
  -4  -1  -2   22.75    1.28
   4   1   2   25.08    1.15
   4   1   2   23.04    1.16
  -5  -1  -2   11.66    0.83
   5   1   2   12.46    0.68
   5   1   2   12.83    0.68
  -6  -1  -2    0.05    0.21
   6   1   2    0.44    1.97
   6   1   2   -0.14    0.14
   6   1   2   -0.03    0.11
  -7  -1  -2    0.20    0.30
   7   1   2    0.17    0.20
  -8  -1  -2   12.77    1.08
   7  -2  -2   -0.16    0.29
   6  -2  -2    1.91    0.33
  -6   2   2    1.82    0.18
   5  -2  -2    7.03    0.55
   5  -2  -2    9.00    2.34
  -5   2   2    7.11    0.39
   4  -2  -2   29.62    3.17
   4  -2  -2   25.71    1.38
  -4   2   2   25.63    1.30
  -4   2   2   26.43    1.26
   3  -2  -2   39.70    3.16
  -3   2   2   37.05    1.72
  -3   2   2   33.13    2.05
   2  -2  -2   14.14    0.71
   2  -2  -2   12.85    1.52
   2  -2  -2   12.84    0.69
  -2   2   2   12.46    0.63
  -2   2   2   11.42    0.70
   1  -2  -2   15.17    1.39
   1  -2  -2   14.39    0.73
  -1   2   2   14.19    0.66
  -1   2   2   14.59    0.73
  -1   2   2   13.21    0.71
  -1   2   2   14.08    0.72
  -1   2   2   14.22    0.69
   0  -2  -2    1.25    0.48
   0  -2  -2    1.17    0.10
   0  -2  -2    1.11    0.11
   0   2   2    1.05    0.07
   0   2   2    0.99    0.08
   0   2   2    1.19    0.08
   0   2   2    1.09    0.10
  -1  -2  -2  416.52   19.75
  -1  -2  -2  379.43   18.70
   1   2   2  410.42   18.72
   1   2   2  422.30   18.72
  -2  -2  -2   17.64    0.91
  -2  -2  -2   16.54    0.87
  -2  -2  -2   18.48    0.87
  -2  -2  -2   17.83    0.86
  -2  -2  -2   16.32    2.07
   2   2   2   18.60    0.86
   2   2   2   18.07    2.33
   2   2   2   16.86    0.92
   2   2   2   18.84    0.87
   2   2   2   18.79    0.88
  -3  -2  -2  153.01    9.98
  -3  -2  -2  181.71    8.08
  -3  -2  -2  175.08    7.97
   3   2   2  178.13    7.99
  -4  -2  -2    8.02    0.58
  -4  -2  -2    7.25    0.40
  -4  -2  -2    7.87    2.26
  -5  -2  -2    0.00    0.15
  -5  -2  -2   -0.06    1.99
   5   2   2    0.28    0.10
   5   2   2   -0.06    0.08
  -6  -2  -2    3.10    0.47
   6   2   2    4.05    0.31
  -7  -2  -2   12.04    0.95
   7   2   2   12.82    0.77
  -8  -2  -2    7.53    0.96
   8   2   2    7.42    0.62
  -9  -2  -2    2.33    0.53
   7  -3  -2    0.27    0.34
   6  -3  -2   33.26    1.81
  -6   3   2   32.77    1.60
   5  -3  -2    2.84    2.04
   5  -3  -2    4.44    0.46
   4  -3  -2   35.28    1.81
   4  -3  -2   36.46    3.68
  -4   3   2   33.72    1.67
   3  -3  -2    5.87    1.49
   3  -3  -2    4.29    0.36
  -3   3   2    4.65    0.29
   2  -3  -2    1.68    0.22
   2  -3  -2    1.74    0.86
  -2   3   2    1.48    0.21
  -2   3   2    1.81    0.15
   1  -3  -2   47.28    2.29
   1  -3  -2   53.30    3.30
  -1   3   2   46.04    2.24
  -1   3   2   45.05    2.27
  -1   3   2   47.84    2.21
   0  -3  -2   51.95    2.48
   0  -3  -2   56.25    3.41
   0  -3  -2   52.46    2.44
   0   3   2   52.56    2.44
   0   3   2   49.93    2.41
   0   3   2   50.65    2.47
  -1  -3  -2  105.58    5.95
  -1  -3  -2  108.95    4.84
  -1  -3  -2  115.54    4.80
  -1  -3  -2  103.92    4.81
   1   3   2  103.61    4.81
   1   3   2   99.70    4.79
   1   3   2   89.62    4.86
  -2  -3  -2    8.17    0.45
  -2  -3  -2    7.94    0.44
  -2  -3  -2    7.99    0.41
  -2  -3  -2    7.59    1.59
   2   3   2    8.14    0.45
   2   3   2    7.61    0.46
   2   3   2    8.13    0.42
   2   3   2    8.45    0.42
  -3  -3  -2    8.60    0.44
  -3  -3  -2    8.51    0.52
  -3  -3  -2    7.12    1.85
   3   3   2    9.18    0.46
  -4  -3  -2    2.06    1.78
  -4  -3  -2    0.83    0.19
  -4  -3  -2    0.93    0.11
   4   3   2    0.97    0.12
  -5  -3  -2   85.10    4.14
  -5  -3  -2   78.41    7.17
   5   3   2   87.62    3.99
  -6  -3  -2    6.60    3.61
  -6  -3  -2    6.95    0.62
   6   3   2    6.82    0.44
  -7  -3  -2   19.15    1.29
   7   3   2   20.33    1.06
  -8  -3  -2    2.02    0.50
  -9  -3  -2    1.22    0.51
   7  -4  -2    0.04    0.44
   6  -4  -2    8.60    0.76
  -6   4   2    7.37    0.50
   5  -4  -2    0.76    0.27
  -5   4   2    0.53    0.14
   4  -4  -2    4.42    1.94
   4  -4  -2    6.82    0.53
  -4   4   2    6.28    0.40
   3  -4  -2    3.76    1.55
   3  -4  -2    2.90    0.31
  -3   4   2    3.06    0.24
   2  -4  -2  139.84    6.22
   2  -4  -2  129.19    6.25
   2  -4  -2  147.60    7.89
  -2   4   2  117.54    6.24
   1  -4  -2   58.17    3.81
  -1   4   2   46.10    2.51
  -1   4   2   51.57    2.46
  -1   4   2   60.03    4.41
   0  -4  -2  103.07    5.01
   0  -4  -2  115.27    6.24
   0   4   2  104.00    4.95
   0   4   2  108.76    4.97
   0   4   2  104.27    4.93
  -1  -4  -2    9.76    0.46
  -1  -4  -2    9.02    0.53
  -1  -4  -2    9.74    1.53
   1   4   2    9.64    0.50
   1   4   2    9.07    0.47
  -2  -4  -2    0.55    0.10
  -2  -4  -2    0.58    0.09
  -2  -4  -2    0.77    1.08
   2   4   2    0.76    0.09
   2   4   2    1.61    0.95
  -3  -4  -2   39.83    3.87
  -3  -4  -2   45.27    2.16
   3   4   2   46.73    2.14
  -4  -4  -2    9.23    0.59
  -4  -4  -2    7.10    2.18
   4   4   2    9.26    0.50
  -5  -4  -2   35.49    1.84
  -5  -4  -2   31.01    4.65
   5   4   2   35.19    1.69
  -6  -4  -2    0.29    2.66
  -6  -4  -2   -0.27    0.20
   6   4   2    0.20    0.08
  -7  -4  -2    0.31    0.30
   7   4   2   -0.06    0.10
  -8  -4  -2    0.20    0.37
  -9  -4  -2    9.10    1.09
   6  -5  -2    0.27    0.39
  -6   5   2    0.21    0.21
   5  -5  -2    0.09    0.38
  -5   5   2    0.47    0.17
   4  -5  -2   21.84    1.27
   4  -5  -2   25.51    4.41
  -4   5   2   21.67    1.15
   3  -5  -2    0.54    1.55
   3  -5  -2    0.24    0.16
  -3   5   2    0.08    0.09
   2  -5  -2   42.30    1.92
   2  -5  -2   42.60    3.61
   2  -5  -2   34.81    1.90
  -2   5   2   33.58    1.83
   1  -5  -2    1.10    1.03
   1  -5  -2    0.34    0.11
  -1   5   2    0.39    0.09
  -1   5   2    0.27    0.07
  -1   5   2    0.39    0.13
   0  -5  -2   18.03    1.00
   0  -5  -2   20.08    2.32
   0   5   2   19.13    0.96
  -1  -5  -2   19.21    2.26
  -1  -5  -2   17.06    0.94
   1   5   2   17.10    0.85
   1   5   2   17.91    0.89
  -2  -5  -2  126.74    8.27
  -2  -5  -2  150.32    6.55
  -2  -5  -2  145.89    6.72
   2   5   2  143.13    6.57
  -3  -5  -2   51.15    2.40
  -3  -5  -2   43.45    4.76
  -3  -5  -2   51.68    2.46
   3   5   2   51.88    2.38
  -4  -5  -2   27.01    1.44
  -4  -5  -2   30.45    1.46
  -4  -5  -2   23.68    3.84
  -5  -5  -2    3.42    2.44
  -5  -5  -2    3.15    0.38
   5   5   2    3.21    0.24
  -6  -5  -2    0.21    2.93
  -6  -5  -2    0.36    0.22
   6   5   2    0.35    0.09
  -7  -5  -2   13.27    0.97
   7   5   2   13.04    0.78
  -8  -5  -2    0.43    0.36
  -9  -5  -2   10.70    1.09
   5  -6  -2   14.95    1.10
  -5   6   2   13.48    0.85
   4  -6  -2   21.65    1.33
  -4   6   2   21.94    1.17
   3  -6  -2    5.38    2.68
   3  -6  -2    4.71    0.49
  -3   6   2    4.30    0.37
   2  -6  -2    0.61    0.18
   2  -6  -2   -0.18    1.45
  -2   6   2    0.38    0.12
   1  -6  -2    0.29    1.20
   1  -6  -2    0.04    0.13
  -1   6   2    0.25    0.08
  -1   6   2    0.05    0.09
   0  -6  -2   62.49    4.57
   0  -6  -2   56.63    2.84
   0   6   2   57.20    2.73
   0   6   2   57.90    2.79
  -1  -6  -2    0.68    1.15
  -1  -6  -2    1.27    0.20
   1   6   2    1.15    0.16
   1   6   2    0.70    0.10
  -2  -6  -2   30.95    3.52
  -2  -6  -2   34.90    1.73
   2   6   2   33.10    1.61
   2   6   2   34.98    1.66
  -3  -6  -2    0.79    0.15
  -3  -6  -2    0.63    0.10
  -3  -6  -2    1.29    1.56
   3   6   2    0.90    0.11
  -4  -6  -2    9.23    0.57
  -4  -6  -2    7.45    2.56
  -4  -6  -2    9.78    0.62
   4   6   2    9.56    0.51
  -5  -6  -2   11.29    0.71
  -5  -6  -2    6.49    2.62
   5   6   2   11.41    0.60
  -6  -6  -2   22.13    5.35
  -6  -6  -2   26.18    1.45
   6   6   2   25.00    1.27
  -7  -6  -2   22.29    1.37
   7   6   2   21.39    1.13
  -8  -6  -2    2.35    0.50
  -9  -6  -2    1.79    0.54
   5  -7  -2    4.06    0.71
  -5   7   2    4.48    0.57
   4  -7  -2    0.94    0.37
  -4   7   2    1.04    0.25
   3  -7  -2    7.25    0.65
  -3   7   2    6.68    0.52
   2  -7  -2   15.65    0.97
  -2   7   2   14.94    0.87
   1  -7  -2   32.39    3.77
   1  -7  -2   26.97    1.49
  -1   7   2   27.75    1.43
  -1   7   2   26.47    1.36
   0  -7  -2   45.05    4.27
   0  -7  -2   44.48    2.28
   0   7   2   46.48    2.23
   0   7   2   44.63    2.15
  -1  -7  -2    4.25    1.75
  -1  -7  -2    3.56    0.37
   1   7   2    3.51    0.24
   1   7   2    3.97    0.31
  -2  -7  -2    0.19    0.14
  -2  -7  -2    0.72    1.52
   2   7   2    0.05    0.06
   2   7   2    0.11    0.12
  -3  -7  -2    0.86    1.75
  -4  -7  -2   28.94    4.59
  -4  -7  -2   36.53    1.83
  -4  -7  -2   34.52    1.69
   4   7   2   35.59    1.69
  -5  -7  -2    2.66    2.65
   5   7   2    2.81    0.23
  -6  -7  -2   10.68    0.79
   6   7   2   11.63    0.63
  -7  -7  -2    0.95    0.35
   7   7   2    0.45    0.15
  -8  -7  -2    1.29    0.44
   8   7   2    1.23    0.20
  -3   8   2   16.74    1.01
   2  -8  -2   12.89    0.89
  -2   8   2   11.66    0.77
   1  -8  -2    4.74    0.53
  -1   8   2    4.56    0.36
  -1   8   2    4.80    0.44
   0  -8  -2    4.43    0.48
   0   8   2    4.59    0.39
   0   8   2    3.98    0.32
  -1  -8  -2   12.31    0.79
   1   8   2   11.94    0.64
   1   8   2   11.14    0.71
  -2  -8  -2   16.81    3.84
  -2  -8  -2   15.46    0.97
   2   8   2   15.67    0.81
  -3  -8  -2    8.67    3.01
  -3  -8  -2   12.43    0.81
   3   8   2   12.47    0.65
  -4  -8  -2   26.14    1.45
   4   8   2   25.57    1.28
   5   8   2   -0.08    0.09
  -6  -8  -2   -0.12    0.24
  -7  -8  -2   -0.02    0.36
   7   8   2   -0.21    0.12
  -8  -8  -2    5.34    0.86
   8   8   2    7.21    0.48
   2  -9  -2   -0.18    0.40
  -2   9   2    0.68    0.27
   1  -9  -2    0.53    0.36
  -1   9   2    0.97    0.25
   0   9   2    2.62    0.30
   0   9   2    3.12    0.40
  -1  -9  -2   20.28    1.22
   1   9   2   19.97    1.03
   1   9   2   19.31    1.12
  -2  -9  -2   25.36    1.47
   2   9   2   25.11    1.27
  -3  -9  -2    1.28    0.33
   3   9   2    1.40    0.20
  -4  -9  -2    6.65    0.69
   4   9   2    6.56    0.42
   5   9   2    3.99    0.31
  -6  -9  -2    6.04    0.81
   6   9   2    5.71    0.40
   7   9   2    0.48    0.15
   0 -10  -2    0.05    0.41
   0  10   2    0.75    0.23
   0  10   2    1.20    0.28
  -1 -10  -2    9.23    0.84
   1  10   2    8.66    0.58
  -2 -10  -2    4.75    0.61
   2  10   2    3.01    0.33
  -3 -10  -2    1.85    0.39
   3  10   2    1.59    0.21
  -4 -10  -2    4.55    0.63
   4  10   2    3.31    0.32
  -5 -10  -2    5.98    0.79
   5  10   2    6.72    0.45
  -5  -8   3    2.34    0.48
  -4  -8   3   15.33    1.11
   3   8  -3    3.62    0.46
  -3  -8   3    3.43    0.57
   2   8  -3   20.23    1.13
  -2  -8   3   22.07    1.34
   1   8  -3   12.44    0.75
  -1  -8   3   13.25    0.79
  -1  -8   3   10.37    1.09
   0  -8   3    2.22    0.68
   0  -8   3    1.37    0.29
  -6  -7   3    0.37    0.34
  -5  -7   3    0.59    0.32
  -4  -7   3    8.75    1.19
  -3  -7   3   19.93    1.23
   2   7  -3    0.11    0.12
  -2  -7   3    0.40    0.23
  -1  -7   3   11.00    0.79
   0   7  -3   13.19    0.97
   0  -7   3   13.45    0.94
   0  -7   3   15.77    0.88
  -1   7  -3    5.40    0.48
   1  -7   3    3.64    0.50
   1  -7   3    4.82    0.47
  -2   7  -3    8.51    0.67
   2  -7   3    9.44    0.68
  -7  -6   3    2.48    0.45
  -7  -6   3    2.75    0.60
  -6  -6   3    0.22    0.36
  -6  -6   3   -0.15    0.25
  -5  -6   3    0.95    0.33
  -5  -6   3    0.80    0.28
  -4  -6   3    7.91    0.61
  -4  -6   3    6.97    0.63
  -3  -6   3    0.40    0.21
  -3  -6   3    0.73    0.25
   2   6  -3    0.73    0.14
  -2  -6   3    0.74    0.24
  -2  -6   3    0.94    0.24
   1   6  -3   11.45    0.65
  -1  -6   3   11.33    0.67
  -1  -6   3   11.78    0.77
   0   6  -3   12.76    0.98
   0  -6   3   12.65    0.80
   0  -6   3   12.08    0.73
  -1   6  -3   49.98    2.47
   1  -6   3   49.06    2.45
   1  -6   3   49.35    2.47
  -2   6  -3    0.52    0.21
   2  -6   3    0.49    0.26
  -3   6  -3   12.06    0.80
   3  -6   3   12.31    0.81
  -8  -5   3   15.17    1.39
  -8  -5   3   18.33    1.28
  -7  -5   3    3.33    0.53
  -7  -5   3    4.38    0.72
  -6  -5   3   87.72    4.09
  -6  -5   3   74.46    4.05
  -5  -5   3   -0.09    0.21
  -5  -5   3    0.32    0.24
  -4  -5   3   52.33    2.56
  -4  -5   3   47.32    2.51
  -3  -5   3    1.78    0.29
   2   5  -3    0.90    0.13
  -2  -5   3    0.68    0.19
  -2  -5   3    1.39    0.75
  -2  -5   3    1.08    0.19
   1   5  -3    1.30    0.20
   1   5  -3    1.03    0.14
  -1  -5   3    1.33    0.21
  -1  -5   3    1.24    0.21
  -1  -5   3    0.45    0.85
   0   5  -3   14.78    0.83
   0   5  -3   13.66    0.76
   0  -5   3   14.47    0.83
   0  -5   3   13.85    0.77
   0  -5   3   14.95    1.89
  -1   5  -3    0.12    0.13
   1  -5   3    0.39    0.14
   1  -5   3    1.36    2.58
   1  -5   3    0.12    0.17
  -2   5  -3    0.41    0.14
   2  -5   3    0.42    0.16
   2  -5   3    0.71    0.20
  -3   5  -3   18.66    1.06
   3  -5   3   19.16    1.09
   3  -5   3   18.93    1.07
  -4   5  -3    5.68    0.50
  -5   5  -3   30.98    1.64
   8   4  -3    2.75    0.45
  -8  -4   3    1.89    0.58
   7   4  -3    7.52    0.98
  -7  -4   3    7.10    0.80
   6   4  -3    1.20    0.27
  -6  -4   3    0.96    0.31
   5   4  -3    0.05    0.16
  -5  -4   3    0.45    0.25
   4   4  -3  102.98    4.86
  -4  -4   3  106.03    4.88
  -4  -4   3   93.04    4.83
  -3  -4   3    6.95    0.52
   2   4  -3  325.40   14.45
  -2  -4   3  311.81   14.52
  -2  -4   3  303.48   14.56
   1   4  -3    0.81    0.11
  -1  -4   3    1.33    0.61
  -1  -4   3    0.71    0.16
   0   4  -3   96.28    4.63
   0  -4   3   98.00    4.69
   0  -4   3  103.42    5.35
   0  -4   3   98.99    4.65
  -1   4  -3    0.82    0.17
   1  -4   3    1.19    0.17
   1  -4   3    1.51    0.84
   1  -4   3    1.43    1.91
   1  -4   3    1.12    0.17
  -2   4  -3    1.66    0.22
   2  -4   3    1.40    0.20
   2  -4   3    2.92    2.72
   2  -4   3    1.99    0.25
   2  -4   3    2.92    1.28
  -3   4  -3    7.51    0.50
   3  -4   3    6.81    0.49
   3  -4   3    7.92    0.51
  -4   4  -3    6.10    0.47
   4  -4   3    6.71    0.50
  -6   4  -3    0.15    0.20
   8   3  -3    1.65    0.40
  -8  -3   3    1.99    0.52
   7   3  -3    3.88    0.55
  -7  -3   3    3.34    0.59
   6   3  -3    7.50    0.63
  -6  -3   3    7.30    0.71
   5   3  -3   16.05    1.01
  -5  -3   3   17.32    1.06
   4   3  -3   20.04    1.16
   4   3  -3   22.20    1.01
  -4  -3   3   19.81    1.17
  -4  -3   3   20.45    1.00
   3   3  -3   24.72    1.32
  -2  -3   3    5.63    0.39
  -2  -3   3    5.10    0.40
   1   3  -3    0.82    0.10
   1   3  -3    0.65    0.12
  -1  -3   3    0.52    0.12
   0   3  -3  275.54   13.12
   0   3  -3  286.46   13.16
   0   3  -3  286.60   13.19
   0  -3   3  277.44   13.16
   0  -3   3  280.48   13.13
   0  -3   3  301.39   13.63
  -1   3  -3   10.75    0.59
   1  -3   3   10.91    1.47
   1  -3   3   10.65    0.58
   1  -3   3    8.62    2.13
   1  -3   3   10.61    0.58
   1  -3   3   10.36    0.61
  -2   3  -3  305.02   13.93
   2  -3   3  307.34   13.92
   2  -3   3  251.46   16.25
   2  -3   3  329.28   13.90
   2  -3   3  312.44   15.55
   2  -3   3  296.03   13.90
  -3   3  -3    3.58    0.28
   3  -3   3    4.16    1.96
   3  -3   3    3.32    2.99
   3  -3   3    2.98    0.29
   3  -3   3    3.09    0.42
  -4   3  -3   46.57    2.23
   4  -3   3   38.47    6.64
   4  -3   3   44.61    2.25
   4  -3   3   47.24    2.20
   4  -3   3   45.90    5.17
  -5   3  -3    3.81    0.34
  -8  -2   3    0.67    0.46
   7   2  -3   43.79    2.31
  -7  -2   3   42.54    2.43
   6   2  -3    4.78    0.51
  -6  -2   3    4.81    0.57
   5   2  -3  116.20    5.38
  -5  -2   3  107.37    5.42
   4   2  -3    9.33    0.62
  -4  -2   3    9.35    0.46
  -4  -2   3    8.70    0.64
  -4  -2   3    9.80    0.46
  -3  -2   3   20.46    0.97
  -3  -2   3   19.72    1.17
  -2  -2   3   63.13    3.07
  -2  -2   3   68.35    3.15
   1   2  -3   37.99    1.93
  -1  -2   3   41.96    1.91
   0   2  -3   75.56    3.40
   0  -2   3   75.98    3.72
   0  -2   3   73.33    3.38
   0  -2   3   71.81    3.41
   0  -2   3   62.42    4.02
   0  -2   3   70.50    3.41
   0  -2   3   76.52    3.43
  -1   2  -3   25.28    1.15
  -1   2  -3   23.45    1.16
   1  -2   3   18.11    2.57
   1  -2   3   20.88    2.52
   1  -2   3   24.92    1.16
   1  -2   3   22.14    1.15
   1  -2   3   23.80    1.13
  -2   2  -3    6.25    0.39
   2  -2   3    5.85    0.38
   2  -2   3    5.94    1.98
   2  -2   3    6.46    0.35
   2  -2   3    6.40    1.58
   2  -2   3    6.84    0.38
  -3   2  -3    1.67    0.18
   3  -2   3    1.59    1.28
   3  -2   3    2.00    0.17
   3  -2   3    0.62    2.16
   3  -2   3    1.41    0.19
  -4   2  -3  137.26    6.28
   4  -2   3  125.87    8.75
   4  -2   3  136.84    6.23
   4  -2   3  135.54    6.31
  -5   2  -3    4.44    0.33
   5  -2   3    4.17    0.36
   8   1  -3    6.91    0.78
  -8  -1   3    7.30    0.95
   7   1  -3    7.79    0.74
  -7  -1   3    9.15    0.86
   6   1  -3    2.37    0.39
  -6  -1   3    2.25    0.40
   5   1  -3    4.59    0.42
  -5  -1   3    4.00    0.46
   4   1  -3    3.74    0.34
  -4  -1   3    3.16    0.36
  -4  -1   3    3.40    0.23
   3   1  -3  254.99   12.59
  -3  -1   3  273.83   12.47
  -3  -1   3  283.84   12.46
   2   1  -3   17.49    0.97
  -2  -1   3   20.01    0.99
  -2  -1   3   18.47    0.89
  -2  -1   3   18.38    0.88
  -2  -1   3   18.62    0.89
   1   1  -3  480.53   22.06
  -1  -1   3  404.82   21.98
  -1  -1   3  506.97   22.08
  -1  -1   3  512.00   22.04
  -1  -1   3  490.46   22.02
   0   1  -3   45.03    2.36
   0   1  -3   51.78    2.32
   0   1  -3   49.62    2.31
   0  -1   3   50.76    2.34
   0  -1   3   52.65    2.34
   0  -1   3   49.93    2.29
   0  -1   3   49.35    2.73
   0  -1   3   41.46    2.58
   0  -1   3   50.95    2.33
   0  -1   3   49.06    2.30
  -1   1  -3   24.22    1.18
  -1   1  -3   25.94    1.19
   1  -1   3   20.35    1.84
   1  -1   3   24.54    1.16
   1  -1   3   22.59    2.31
   1  -1   3   24.99    1.15
  -2   1  -3   91.56    4.13
   2  -1   3   79.97    5.27
   2  -1   3   86.25    5.99
  -3   1  -3   21.43    1.09
   3  -1   3   22.97    1.11
   3  -1   3   20.59    2.62
  -4   1  -3   45.46    2.25
  -4   1  -3   43.81    2.12
   4  -1   3   44.12    2.15
   4  -1   3   42.03    4.23
   5  -1   3    3.95    2.14
   5  -1   3    4.36    0.36
   5  -1   3    6.02    2.74
   8   0  -3    6.75    0.73
  -8   0   3    4.60    0.74
   7   0  -3    2.76    0.42
  -7   0   3    4.58    0.69
   6   0  -3    1.07    0.26
   6   0  -3   -0.06    2.66
  -6   0   3    1.11    0.32
   5   0  -3   13.80    0.84
  -5   0   3   12.53    0.90
   4   0  -3   19.34    1.08
  -4   0   3   17.24    1.10
  -4   0   3   20.80    0.94
   3   0  -3   58.25    3.10
  -3   0   3   57.77    3.13
  -3   0   3   67.72    2.91
  -3   0   3   63.16    2.89
  -3   0   3   65.88    2.90
   2   0  -3    3.19    0.26
  -2   0   3    3.24    0.17
  -2   0   3    3.34    0.18
  -2   0   3    3.17    0.18
  -2   0   3    3.38    0.27
  -2   0   3    2.38    0.66
   1   0  -3   32.85    1.67
   1   0  -3   33.60    1.60
   1   0  -3   34.11    1.67
  -1   0   3   34.14    1.59
  -1   0   3   30.19    1.95
  -1   0   3   36.66    1.62
  -1   0   3   35.07    1.61
  -1   0   3   36.72    1.65
  -1   0   3   35.54    1.67
  -1   0   3   34.05    1.61
   0   0  -3   18.45    0.91
   0   0  -3   17.43    0.90
   0   0   3   17.26    0.88
   0   0   3   20.35    1.33
   0   0   3   18.87    0.91
   0   0   3   18.01    0.89
   0   0   3   18.68    0.89
   0   0   3   18.63    0.87
  -1   0  -3  475.29   22.21
   1   0   3  478.92   23.38
   1   0   3  498.32   22.22
   1   0   3  480.40   22.26
  -2   0  -3   17.18    0.87
   2   0   3   16.07    2.38
   2   0   3   16.48    0.85
   2   0   3   15.92    0.82
  -3   0  -3  145.82   10.04
   3   0   3  190.69    7.91
   4   0   3    9.84    2.21
  -5   0  -3    0.83    0.24
   5   0   3    1.15    0.17
   5   0   3   -0.17    1.68
  -6   0  -3   27.49    1.78
   6   0   3   22.95    5.59
   6   0   3   30.50    1.42
   6   0   3   29.11    1.49
   8  -1  -3    0.99    0.37
  -8   1   3   -0.26    0.46
   7  -1  -3    9.51    0.82
  -7   1   3    9.73    0.93
   6  -1  -3   32.70    4.69
   6  -1  -3   28.79    1.58
  -6   1   3   25.93    1.64
   5  -1  -3   41.75    4.09
   5  -1  -3   37.16    1.98
  -5   1   3   34.95    2.15
  -5   1   3   40.38    1.82
   4  -1  -3   41.78    2.13
   4  -1  -3   43.28    3.56
  -4   1   3   45.58    1.98
  -4   1   3   42.06    1.95
  -4   1   3   38.02    2.17
  -3   1   3    9.39    0.48
  -3   1   3    9.93    0.47
   2  -1  -3    0.56    0.11
  -2   1   3    0.45    0.10
  -2   1   3    0.60    0.58
  -2   1   3    0.52    0.06
   1  -1  -3  108.07    5.27
   1  -1  -3  111.35    5.27
  -1   1   3  112.07    5.88
  -1   1   3  119.86    5.25
  -1   1   3  112.89    5.21
   0  -1  -3   32.22    1.64
   0  -1  -3   33.95    1.67
   0  -1  -3   36.26    1.67
   0   1   3   40.70    2.28
   0   1   3   34.19    1.66
   0   1   3   34.59    1.64
   0   1   3   34.81    1.65
  -1  -1  -3  143.44    6.40
  -1  -1  -3  134.40    6.37
  -1  -1  -3  130.40    6.38
   1   1   3  138.66    6.38
   1   1   3  143.73    6.37
   1   1   3  147.31    7.55
   1   1   3  134.92    6.42
   1   1   3  133.45    6.38
  -2  -1  -3    0.15    0.07
  -2  -1  -3    0.19    0.79
  -2  -1  -3    0.20    0.07
   2   1   3    0.10    0.05
   2   1   3    0.09    0.04
  -3  -1  -3   11.64    2.41
   3   1   3   10.74    0.59
   3   1   3   11.17    0.57
  -4  -1  -3    3.13    2.10
  -4  -1  -3    4.46    0.41
   4   1   3    5.46    0.34
  -5  -1  -3   81.94    4.07
   5   1   3   83.55    3.93
  -6  -1  -3    0.28    0.19
   6   1   3   -0.29    2.07
   6   1   3   -0.05    2.61
   6   1   3    0.15    0.12
  -7  -1  -3   24.94    1.54
   8  -2  -3    6.96    0.90
   7  -2  -3    0.95    0.37
   6  -2  -3   23.51    1.38
   5  -2  -3    4.99    0.48
   5  -2  -3    5.21    2.01
  -5   2   3    4.56    0.27
   4  -2  -3    2.78    0.30
   4  -2  -3    2.66    1.37
  -4   2   3    2.18    0.32
  -4   2   3    2.24    0.17
   3  -2  -3   48.03    2.44
   3  -2  -3   53.08    3.81
  -3   2   3   49.00    2.32
   2  -2  -3  177.21    8.86
   2  -2  -3  160.89    7.73
  -2   2   3  158.43    7.74
  -2   2   3  166.87    7.64
   1  -2  -3  160.12    7.75
   1  -2  -3  176.71    8.65
  -1   2   3  164.90    7.72
  -1   2   3  185.39    7.76
  -1   2   3  158.19    7.69
  -1   2   3  156.20    7.74
   0  -2  -3  126.78    5.53
   0  -2  -3  122.50    5.54
   0  -2  -3  111.89    5.50
   0   2   3  117.82    5.48
   0   2   3  118.19    5.53
   0   2   3  121.45    5.52
   0   2   3  114.76    5.50
  -1  -2  -3    8.76    1.41
  -1  -2  -3    9.76    0.50
  -1  -2  -3   10.21    0.51
  -1  -2  -3   10.43    0.51
   1   2   3   10.37    0.51
   1   2   3    9.06    0.52
   1   2   3    9.83    0.50
  -2  -2  -3    2.60    1.12
  -2  -2  -3    2.28    0.19
   2   2   3    2.34    0.16
   2   2   3    2.51    0.16
   2   2   3    2.15    0.21
  -3  -2  -3   58.37    5.08
  -3  -2  -3   68.46    3.23
   3   2   3   70.29    3.15
   3   2   3   68.83    3.17
  -4  -2  -3    4.33    2.18
  -4  -2  -3    3.67    0.39
   4   2   3    3.70    0.27
  -5  -2  -3   39.92    2.03
  -5  -2  -3   31.04    4.77
   5   2   3   39.34    1.88
  -6  -2  -3    2.37    3.15
  -6  -2  -3    1.08    0.29
   6   2   3    1.62    0.22
  -7  -2  -3    0.25    0.28
  -8  -2  -3   -0.15    0.41
  -9  -2  -3   10.47    1.12
   7  -3  -3    9.97    0.89
   6  -3  -3    2.72    0.42
  -6   3   3    2.74    0.24
   5  -3  -3    0.53    0.23
  -5   3   3    1.37    2.04
   4  -3  -3   50.09    4.26
   4  -3  -3   43.17    2.26
  -4   3   3   43.52    2.12
   3  -3  -3    0.12    0.95
   3  -3  -3    0.52    0.14
  -3   3   3    0.70    0.09
   2  -3  -3   84.88    4.94
  -2   3   3   69.58    3.57
  -2   3   3   71.75    3.48
   1  -3  -3    5.85    0.37
   1  -3  -3    7.10    1.24
  -1   3   3    5.31    0.31
  -1   3   3    5.27    0.27
  -1   3   3    5.66    0.36
   0  -3  -3   20.71    1.02
   0  -3  -3   20.03    0.99
   0  -3  -3   21.22    1.98
   0   3   3   22.26    2.11
   0   3   3   19.22    0.97
   0   3   3   19.71    0.95
   0   3   3   19.69    0.97
  -1  -3  -3   75.70    3.78
  -1  -3  -3   88.83    3.79
  -1  -3  -3   85.41    3.82
  -1  -3  -3   77.61    5.05
   1   3   3   76.32    3.80
   1   3   3   81.93    3.81
   1   3   3   82.85    3.77
   1   3   3   81.73    3.79
  -2  -3  -3  141.52    6.10
  -2  -3  -3  114.57    7.62
  -2  -3  -3  137.24    6.10
   2   3   3  117.49    6.17
   2   3   3  139.70    6.08
   2   3   3  131.35    6.10
   2   3   3  134.19    6.08
  -3  -3  -3   82.88    6.35
  -3  -3  -3   98.18    4.35
  -4  -3  -3   11.97    2.94
  -4  -3  -3   13.02    0.78
   4   3   3   13.41    0.70
  -5  -3  -3    5.66    0.49
  -5  -3  -3    3.95    2.84
   5   3   3    5.50    0.37
  -6  -3  -3   -0.71    2.89
  -7  -3  -3   14.01    0.99
   7   3   3   12.74    0.77
  -8  -3  -3    0.39    0.38
  -9  -3  -3    7.64    1.00
   7  -4  -3    5.75    0.85
   6  -4  -3   35.79    1.96
  -6   4   3   34.51    1.71
   5  -4  -3   45.28    2.30
  -5   4   3   42.21    2.10
   4  -4  -3   84.06    6.08
   4  -4  -3   70.64    3.64
  -4   4   3   71.77    3.50
   3  -4  -3   24.73    2.89
   3  -4  -3   21.75    1.23
  -3   4   3   22.77    1.13
   2  -4  -3    0.83    0.98
   2  -4  -3    0.84    0.16
  -2   4   3    1.06    0.13
  -2   4   3    1.06    0.17
  -1   4   3    0.34    0.05
  -1   4   3    0.21    0.06
   0  -4  -3  112.62    5.36
   0  -4  -3  120.84    6.71
   0   4   3  110.52    5.27
  -1  -4  -3    1.25    0.11
  -1  -4  -3    1.62    0.93
  -1  -4  -3    1.18    0.14
   1   4   3    1.29    0.10
   1   4   3    1.23    0.12
  -2  -4  -3   52.73    4.89
  -2  -4  -3   62.63    2.76
   2   4   3   52.06    2.81
   2   4   3   61.35    2.76
   2   4   3   61.57    2.74
  -3  -4  -3    0.01    0.08
  -3  -4  -3   -1.19    1.07
  -4  -4  -3    3.09    0.36
  -4  -4  -3    2.77    1.95
   4   4   3    3.78    0.25
  -5  -4  -3   19.86    4.63
  -5  -4  -3   25.17    1.38
   5   4   3   25.64    1.25
  -6  -4  -3   14.16    0.92
   6   4   3   13.45    0.76
  -7  -4  -3   37.20    2.03
   7   4   3   35.19    1.80
  -8  -4  -3    0.54    0.52
  -9  -4  -3    2.24    0.54
   6  -5  -3    0.48    0.43
  -6   5   3    0.25    0.21
   5  -5  -3    1.03    0.34
  -5   5   3    1.64    0.23
   4  -5  -3    5.83    0.54
   4  -5  -3    6.36    2.52
  -4   5   3    4.32    0.36
   3  -5  -3   34.14    1.79
   3  -5  -3   34.70    3.97
  -3   5   3   33.34    1.67
   2  -5  -3   75.17    5.08
   2  -5  -3   66.45    3.27
  -2   5   3   60.26    3.23
  -2   5   3   68.68    3.18
   1  -5  -3   89.10    5.43
   1  -5  -3   75.89    3.75
  -1   5   3   77.26    3.68
  -1   5   3   72.97    3.84
   0  -5  -3  112.42    6.52
   0  -5  -3   97.65    4.82
   0   5   3   99.80    4.72
   0   5   3  100.20    4.77
  -1  -5  -3   10.11    1.89
  -1  -5  -3    9.84    0.63
  -1  -5  -3    9.08    0.45
   1   5   3    8.97    0.48
   1   5   3    7.21    0.47
  -2  -5  -3    0.35    0.06
  -2  -5  -3    0.39    0.10
  -2  -5  -3    0.88    1.09
  -3  -5  -3    1.08    1.26
  -4  -5  -3   43.29    2.11
   4   5   3   41.98    2.04
  -5  -5  -3    5.29    0.46
  -5  -5  -3    5.41    2.61
   5   5   3    4.95    0.34
  -6  -5  -3   10.01    4.49
  -6  -5  -3   15.53    1.01
   6   5   3   16.30    0.85
  -7  -5  -3    0.14    0.27
   7   5   3    0.15    0.12
  -8  -5  -3    0.47    0.37
  -9  -5  -3    7.77    0.96
   6  -6  -3   -0.17    0.46
   5  -6  -3    1.13    0.43
  -5   6   3    0.90    0.24
   4  -6  -3   -0.17    0.28
  -4   6   3   -0.25    0.15
   3  -6  -3   22.76    3.84
   3  -6  -3   21.55    1.26
  -3   6   3   21.56    1.14
   2  -6  -3    4.22    0.42
   2  -6  -3    4.11    1.69
   2  -6  -3    4.11    0.32
  -2   6   3    3.72    0.31
   1  -6  -3    0.61    1.14
   1  -6  -3    0.16    0.15
  -1   6   3    0.16    0.07
  -1   6   3    0.08    0.10
   0  -6  -3    0.60    1.21
   0  -6  -3   -0.06    0.10
   0   6   3    0.22    0.06
   0   6   3    0.24    0.09
  -1  -6  -3   40.58    3.90
  -1  -6  -3   40.89    2.04
   1   6   3   40.63    1.93
   1   6   3   41.14    1.98
  -2  -6  -3   53.79    2.60
  -2  -6  -3   49.46    4.54
  -2  -6  -3   56.35    2.47
   2   6   3   50.53    2.52
   2   6   3   52.54    2.48
  -3  -6  -3   22.57    1.18
  -3  -6  -3   22.56    1.08
  -3  -6  -3   17.12    3.27
   3   6   3   21.91    1.08
  -4  -6  -3   60.07    2.83
  -4  -6  -3   47.01    5.35
  -4  -6  -3   59.40    2.78
   4   6   3   59.29    2.74
  -5  -6  -3    1.46    2.43
  -6  -6  -3    0.65    0.27
  -6  -6  -3    1.96    3.31
   6   6   3    0.90    0.15
  -7  -6  -3    0.36    0.30
   7   6   3    0.35    0.13
  -8  -6  -3    7.93    0.83
   8   6   3    6.83    0.55
  -9  -6  -3    3.04    0.64
   5  -7  -3    8.93    1.06
  -5   7   3    8.87    0.80
   4  -7  -3    1.76    0.43
  -4   7   3    1.64    0.27
   3  -7  -3   12.55    0.88
  -3   7   3   11.43    0.72
   2  -7  -3    1.34    0.27
  -2   7   3    2.12    0.28
   1  -7  -3    2.69    0.38
   1  -7  -3    2.83    1.88
  -1   7   3    2.95    0.23
  -1   7   3    2.72    0.28
   0  -7  -3    0.27    0.15
   0  -7  -3    0.20    1.56
   0   7   3    0.17    0.07
   0   7   3    0.33    0.12
  -1  -7  -3   16.41    2.92
  -1  -7  -3   17.68    1.02
   1   7   3   18.76    0.96
   1   7   3   17.91    0.89
  -2  -7  -3   18.46    1.02
  -2  -7  -3   15.34    3.11
   2   7   3   17.78    0.97
   2   7   3   17.29    0.88
  -3  -7  -3    0.12    0.13
  -3  -7  -3    0.22    0.07
  -3  -7  -3    1.29    1.79
   3   7   3    0.12    0.06
  -4  -7  -3    0.84    0.14
  -4  -7  -3    0.63    2.08
   4   7   3    0.61    0.11
  -5  -7  -3   11.13    0.67
   5   7   3   10.32    0.59
  -6  -7  -3   22.59    1.29
   6   7   3   22.70    1.16
  -7  -7  -3    1.24    0.39
  -8  -7  -3   16.96    1.25
   8   7   3   18.32    0.97
   4  -8  -3    1.08    0.50
  -4   8   3    0.87    0.37
   3  -8  -3    1.50    0.38
  -3   8   3    1.18    0.26
   2  -8  -3    5.52    0.64
  -2   8   3    6.04    0.49
   1  -8  -3   13.35    0.89
  -1   8   3   13.49    0.79
  -1   8   3   12.59    0.71
   0  -8  -3    0.95    0.24
   0   8   3    1.38    0.17
   0   8   3    1.11    0.20
  -1  -8  -3   11.96    0.80
  -1  -8  -3   10.78    3.69
   1   8   3   12.30    0.73
   1   8   3   12.53    0.65
  -2  -8  -3    7.89    2.56
  -2  -8  -3    9.47    0.68
   2   8   3    9.18    0.52
   2   8   3   10.08    0.60
  -3  -8  -3    1.44    0.27
  -3  -8  -3    1.21    2.12
   3   8   3    1.60    0.24
   3   8   3    1.35    0.16
  -4  -8  -3    1.28    0.17
   4   8   3    0.95    0.13
  -5  -8  -3    4.81    0.38
   5   8   3    4.12    0.32
  -6  -8  -3   13.57    0.83
   6   8   3   13.16    0.74
  -7  -8  -3    0.29    0.32
   7   8   3    0.56    0.16
  -8  -8  -3   -0.01    0.41
   8   8   3    0.52    0.17
   2  -9  -3    0.65    0.37
  -2   9   3    0.76    0.25
   1  -9  -3   27.87    1.64
  -1   9   3   27.66    1.42
  -1   9   3   27.96    1.50
   0  -9  -3    2.82    0.43
   0   9   3    3.07    0.31
  -1  -9  -3    4.05    0.53
   1   9   3    3.96    0.40
   1   9   3    3.95    0.31
  -2  -9  -3    0.80    0.24
   2   9   3    1.26    0.23
   2   9   3    0.94    0.14
  -3  -9  -3   10.21    0.75
   3   9   3    9.48    0.55
  -4  -9  -3    7.66    0.68
   4   9   3    8.56    0.50
   5   9   3    6.69    0.46
   6   9   3    7.08    0.47
   7   9   3   -0.33    0.14
   1 -10  -3    6.30    0.86
  -1  10   3    6.98    0.63
   0 -10  -3    1.17    0.37
   0  10   3    0.75    0.23
   0  10   3    1.10    0.24
  -1 -10  -3    8.08    0.79
   1  10   3    8.12    0.53
   1  10   3    8.64    0.64
  -2 -10  -3    0.82    0.29
   2  10   3    0.13    0.14
   2  10   3   -0.30    0.18
  -3 -10  -3   30.16    1.77
   3  10   3   31.64    1.55
   4  10   3    2.86    0.29
   5  10   3    2.17    0.27
   6  10   3    0.09    0.14
  -5  -7   4    3.34    0.53
  -4  -7   4    0.44    0.34
  -3  -7   4    0.43    0.30
  -2  -7   4   31.06    1.73
  -1  -7   4    1.81    0.36
  -1  -7   4    1.52    0.27
   0  -7   4   25.25    1.47
   0  -7   4   25.17    1.38
   1  -7   4    0.13    0.24
  -6  -6   4    0.28    0.32
  -6  -6   4    1.11    0.45
  -5  -6   4    2.51    0.42
  -5  -6   4    2.56    0.45
  -4  -6   4   29.69    1.55
  -4  -6   4   22.60    1.46
  -3  -6   4   14.35    0.96
  -3  -6   4   16.42    1.02
  -2  -6   4   43.41    2.23
  -2  -6   4   45.55    2.31
  -1  -6   4    4.71    0.50
  -1  -6   4    4.87    0.53
  -1  -6   4    5.29    0.42
   0  -6   4   -0.04    0.25
   0  -6   4    0.10    0.18
  -1   6  -4    1.51    0.26
   1  -6   4    1.62    0.28
   1  -6   4    1.36    0.30
  -2   6  -4   31.24    1.64
   2  -6   4   30.07    1.63
  -3   6  -4    2.04    0.33
   3  -6   4    3.57    0.44
  -7  -5   4    0.56    0.37
  -7  -5   4    1.70    0.65
  -6  -5   4    0.40    0.38
  -6  -5   4    0.17    0.30
  -5  -5   4   27.63    1.67
  -5  -5   4   31.28    1.71
  -4  -5   4    5.90    0.57
  -4  -5   4    6.09    0.60
  -3  -5   4   13.87    0.86
  -3  -5   4   12.15    0.82
  -2  -5   4    0.21    0.19
  -2  -5   4    0.21    0.17
   1   5  -4    5.11    0.37
  -1  -5   4    5.82    0.47
   0  -5   4   43.76    2.19
   0  -5   4   43.43    2.15
   1  -5   4   11.95    0.71
   1  -5   4   11.24    0.73
  -2   5  -4   33.66    1.78
   2  -5   4   35.46    1.78
   2  -5   4   34.76    1.77
  -3   5  -4    0.59    0.20
   3  -5   4    0.77    0.23
  -4   5  -4    0.81    0.24
   4  -5   4    0.23    0.26
   8   4  -4   -0.03    0.38
  -8  -4   4    0.99    0.52
   7   4  -4   15.32    1.12
  -7  -4   4   15.90    1.24
   6   4  -4    0.49    0.26
  -6  -4   4    0.48    0.35
   5   4  -4   20.02    1.20
  -5  -4   4   18.05    1.22
  -5  -4   4   21.72    1.00
   4   4  -4    0.48    0.33
  -4  -4   4    0.74    0.24
  -3  -4   4    5.81    0.48
  -3  -4   4    5.82    0.50
  -2  -4   4    2.99    0.34
  -2  -4   4    3.05    0.32
   1   4  -4   56.52    2.63
  -1  -4   4   54.05    2.71
   0  -4   4   15.52    0.88
   0  -4   4   13.46    2.20
   0  -4   4   17.31    1.48
   0  -4   4   15.74    0.84
  -1   4  -4    9.40    0.57
   1  -4   4    7.50    2.34
   1  -4   4    8.58    0.61
   1  -4   4    9.26    0.56
   1  -4   4    9.25    1.61
  -2   4  -4    0.10    0.13
   2  -4   4    0.02    0.15
   2  -4   4    0.14    0.13
  -3   4  -4    2.54    0.31
   3  -4   4    2.83    0.34
  -4   4  -4   16.51    1.06
  -5   4  -4    1.08    0.23
   5  -4   4    0.07    0.31
   8   3  -4    3.02    0.51
  -8  -3   4    5.36    0.90
   7   3  -4   11.55    0.93
  -7  -3   4   11.64    1.06
   6   3  -4    0.29    0.26
  -6  -3   4    0.90    0.33
   5   3  -4   -0.05    0.20
  -5  -3   4   -0.03    0.07
  -5  -3   4    0.21    0.24
   4   3  -4    0.86    0.21
  -4  -3   4    1.28    0.28
  -4  -3   4    1.01    0.15
   3   3  -4   40.25    2.14
   3   3  -4   44.97    2.01
  -3  -3   4   41.65    2.14
   2   3  -4    1.05    0.13
  -2  -3   4    1.00    0.21
  -2  -3   4    1.22    0.20
   1   3  -4   25.81    1.22
  -1  -3   4   24.10    1.29
   0   3  -4    6.14    0.41
   0  -3   4    6.79    0.41
   0  -3   4    7.06    0.44
   0  -3   4    7.38    0.81
   0  -3   4    6.10    1.40
  -1   3  -4   11.73    0.66
   1  -3   4   11.72    0.66
   1  -3   4   13.34    1.62
   1  -3   4   11.62    0.64
   1  -3   4    9.65    2.19
  -2   3  -4    1.01    0.17
   2  -3   4    1.15    0.17
   2  -3   4    0.21    2.20
   2  -3   4    1.90    1.17
   2  -3   4    0.94    0.18
   2  -3   4    1.14    0.23
  -3   3  -4   27.29    1.41
   3  -3   4   27.03    1.42
   3  -3   4   28.70    1.34
   3  -3   4   22.64    4.79
  -4   3  -4    8.93    0.58
   4  -3   4    9.87    0.63
  -5   3  -4    1.46    0.23
   5  -3   4    1.98    0.30
   6  -3   4    0.25    0.30
   8   2  -4    6.82    0.79
  -8  -2   4    7.30    0.97
   7   2  -4    2.19    0.42
  -7  -2   4    2.38    0.51
   6   2  -4    0.60    0.25
  -6  -2   4    1.16    0.32
   5   2  -4   11.11    0.76
  -5  -2   4   10.25    0.80
   4   2  -4    8.38    0.61
  -4  -2   4    8.08    0.44
  -4  -2   4    9.02    0.44
  -4  -2   4    8.48    0.63
   3   2  -4   48.45    2.50
  -3  -2   4   49.31    2.51
  -3  -2   4   52.88    2.38
  -3  -2   4   50.94    2.40
  -2  -2   4    0.24    0.12
   0   2  -4    0.51    0.09
   0  -2   4    0.59    0.29
   0  -2   4    0.59    0.16
   0  -2   4    0.77    0.53
   0  -2   4    0.75    0.12
   0  -2   4    0.53    0.10
  -1   2  -4   31.19    1.53
   1  -2   4   28.70    3.02
   1  -2   4   32.17    1.50
   1  -2   4   29.98    1.51
   1  -2   4   32.56    1.53
   1  -2   4   29.93    2.41
  -2   2  -4   17.07    0.92
   2  -2   4   17.39    2.25
   2  -2   4   18.11    0.86
   2  -2   4   16.09    3.69
   2  -2   4   18.42    0.89
   2  -2   4   16.67    0.91
  -3   2  -4    6.49    0.43
   3  -2   4    6.83    0.44
   3  -2   4    5.08    2.69
   3  -2   4    8.56    2.11
  -4   2  -4   20.01    1.04
   4  -2   4   19.05    3.56
   4  -2   4   16.08    4.70
   4  -2   4   19.76    1.07
   4  -2   4   19.74    1.13
   5  -2   4    4.18    0.38
   8   1  -4    0.85    0.40
  -8  -1   4    0.48    0.47
   7   1  -4    1.71    0.40
  -7  -1   4    1.98    0.44
   6   1  -4   24.43    1.43
  -6  -1   4   25.22    1.54
   5   1  -4   19.25    1.12
  -5  -1   4   18.56    1.18
   4   1  -4   15.72    0.95
  -4  -1   4   16.11    0.77
  -4  -1   4   16.20    1.00
  -4  -1   4   16.79    0.81
  -4  -1   4   16.40    0.77
   3   1  -4    9.47    0.63
  -3  -1   4   10.75    0.51
  -3  -1   4   10.35    0.51
  -3  -1   4    9.62    0.65
  -3  -1   4   10.33    0.52
  -2  -1   4    3.59    0.21
  -2  -1   4    3.07    0.22
  -2  -1   4    3.22    0.19
   1   1  -4   28.65    1.63
  -1  -1   4   31.69    1.47
  -1  -1   4   31.14    1.50
  -1  -1   4   32.64    1.48
   0   1  -4    3.13    0.28
   0  -1   4    2.68    0.66
   0  -1   4    3.56    0.65
   0  -1   4    2.88    0.20
   0  -1   4    3.47    0.26
  -1   1  -4   77.95    3.70
   1  -1   4   78.93    5.02
   1  -1   4   84.14    3.68
   1  -1   4   80.29    3.71
   1  -1   4   68.39    4.52
   1  -1   4   81.80    3.67
   2  -1   4    2.17    0.21
   2  -1   4    3.26    1.75
   2  -1   4    2.49    0.21
   2  -1   4    2.52    1.05
   3  -1   4    3.24    1.54
   3  -1   4    4.01    0.29
   3  -1   4    5.57    2.38
   3  -1   4    4.24    0.30
   4  -1   4    1.16    1.86
   4  -1   4    1.97    0.24
   4  -1   4    2.25    0.23
   5  -1   4    5.91    0.44
   6  -1   4   27.67    1.47
   7  -1   4    0.42    0.24
   8   0  -4   12.78    1.04
  -8   0   4    9.98    1.16
   7   0  -4    0.03    0.27
  -7   0   4    0.02    0.35
   6   0  -4   19.68    1.18
  -6   0   4   18.96    1.27
   5   0  -4    0.47    0.18
  -5   0   4    0.51    0.14
  -5   0   4    0.48    0.24
   4   0  -4    1.25    0.24
  -4   0   4    1.36    0.14
  -4   0   4    1.25    0.24
   3   0  -4    6.61    0.50
  -3   0   4    7.49    0.37
  -3   0   4    7.63    0.38
  -3   0   4    5.98    1.41
  -3   0   4    7.22    0.52
  -3   0   4    7.94    0.38
   2   0  -4   49.39    2.53
  -2   0   4   54.26    2.43
  -2   0   4   51.30    2.40
  -2   0   4   51.91    2.43
  -2   0   4   52.77    2.60
   1   0  -4  103.53    4.76
  -1   0   4  102.11    4.76
  -1   0   4  103.71    4.70
  -1   0   4  101.21    4.67
  -1   0   4   96.60    5.10
  -1   0   4  101.31    4.69
  -1   0   4   98.71    4.66
   0   0  -4   10.64    0.56
   0   0   4   12.12    1.08
   0   0   4   10.08    0.51
   0   0   4   10.74    0.57
   0   0   4   10.15    0.58
   0   0   4    9.68    0.53
  -1   0  -4   43.74    1.97
  -1   0  -4   39.37    1.95
   1   0   4   43.54    3.15
   1   0   4   38.48    1.95
   1   0   4   41.13    1.94
   1   0   4   39.79    1.92
   2   0   4    1.56    1.23
   2   0   4    1.12    0.18
   2   0   4    1.28    0.14
  -3   0  -4   14.90    0.80
   3   0   4   13.42    0.74
   3   0   4   13.50    2.96
   3   0   4   13.69    0.73
  -4   0  -4    0.40    0.14
   4   0   4    0.63    0.11
   4   0   4    0.70    0.16
   4   0   4    0.05    1.56
   5   0   4   30.34    1.57
   5   0   4   32.45    5.01
   5   0   4   31.00    4.35
   6   0   4    2.07    0.30
   8  -1  -4    2.44    0.49
   7  -1  -4    0.07    0.32
   6  -1  -4    1.10    0.31
  -6   1   4    0.89    0.32
   5  -1  -4    2.86    0.38
  -5   1   4    3.42    0.21
  -5   1   4    2.80    0.45
   4  -1  -4   50.15    2.55
  -4   1   4   48.64    2.59
  -4   1   4   52.01    2.36
  -4   1   4   41.14    4.08
  -4   1   4   57.68    2.35
   3  -1  -4    0.66    0.16
  -3   1   4    0.69    0.90
  -3   1   4    0.80    0.08
  -3   1   4    0.78    0.19
  -2   1   4   55.46    3.95
  -2   1   4   71.85    3.17
  -2   1   4   67.05    3.03
   1  -1  -4   11.20    0.63
   1  -1  -4   10.63    0.65
  -1   1   4   12.00    0.68
  -1   1   4   11.08    1.18
  -1   1   4   11.47    0.57
  -1   1   4   11.55    0.54
  -1   1   4   11.16    0.53
   0  -1  -4    0.29    0.08
   0   1   4    0.25    0.41
   0   1   4    0.22    0.05
   0   1   4    0.25    0.07
   0   1   4    0.45    0.07
  -1  -1  -4   27.91    1.35
   1   1   4   29.91    2.48
   1   1   4   25.73    1.33
   1   1   4   27.70    1.31
   1   1   4   27.52    1.32
  -2  -1  -4   20.09    1.02
   2   1   4   20.66    1.00
   2   1   4   18.70    1.08
   2   1   4   21.08    2.70
  -3  -1  -4  106.56    8.01
  -3  -1  -4  129.26    5.77
   3   1   4  127.46    5.72
  -4  -1  -4    1.34    1.90
  -4  -1  -4    2.03    0.27
   4   1   4    2.10    0.21
  -5  -1  -4   29.99    1.62
   5   1   4   24.95    4.42
   5   1   4   30.71    1.51
  -6  -1  -4    0.03    0.20
   6   1   4    0.36    0.14
   7   1   4    2.46    0.34
   8  -2  -4    3.97    0.59
   7  -2  -4   -0.24    0.54
   6  -2  -4    0.60    0.28
   5  -2  -4    0.86    0.21
  -5   2   4    0.99    0.12
  -5   2   4    1.54    1.86
   4  -2  -4    8.52    0.61
   4  -2  -4   12.25    2.34
  -4   2   4    8.43    0.65
  -4   2   4    8.89    0.45
   3  -2  -4   10.36    0.68
   3  -2  -4   14.55    1.87
  -3   2   4   10.96    0.56
  -2   2   4    3.70    0.22
   1  -2  -4   16.98    0.93
   1  -2  -4   17.57    0.94
  -1   2   4   18.35    0.87
  -1   2   4   18.82    1.79
   0  -2  -4  117.30    5.34
   0   2   4  105.70    5.31
   0   2   4  126.96    6.32
   0   2   4  109.69    5.33
  -1  -2  -4   14.72    0.74
   1   2   4   14.14    0.73
   1   2   4   14.73    0.72
   1   2   4   14.88    0.73
  -2  -2  -4   50.66    4.44
  -2  -2  -4   64.86    2.95
   2   2   4   63.47    2.89
   2   2   4   62.32    2.91
   2   2   4   65.69    2.92
  -3  -2  -4   12.53    0.69
  -3  -2  -4    9.78    2.46
   3   2   4   11.65    0.65
  -4  -2  -4   -0.71    1.65
  -4  -2  -4    0.04    0.11
   4   2   4    0.13    0.08
  -5  -2  -4   22.59    1.27
   5   2   4   21.61    1.15
  -6  -2  -4    3.14    0.46
   6   2   4    3.45    0.32
   6   2   4    2.38    2.94
  -7  -2  -4   52.94    2.78
   7   2   4   51.44    2.58
  -8  -2  -4    0.38    0.38
   8   2   4    0.69    0.30
   7  -3  -4    8.97    0.87
   6  -3  -4    9.51    0.81
   5  -3  -4   10.02    0.73
  -5   3   4    9.31    2.65
  -5   3   4    9.35    0.52
   4  -3  -4   24.18    1.42
   4  -3  -4   32.98    3.33
  -4   3   4   25.67    1.27
   3  -3  -4    0.56    0.16
  -3   3   4    0.68    0.09
   2  -3  -4    0.11    0.09
   2  -3  -4    0.25    0.79
  -2   3   4    0.09    0.05
   1  -3  -4   21.91    2.07
   1  -3  -4   17.13    1.00
  -1   3   4   18.05    0.89
  -1   3   4   17.24    0.84
   0  -3  -4   22.49    1.17
   0  -3  -4   23.71    2.22
   0  -3  -4   23.86    1.15
   0   3   4   22.78    1.09
  -1  -3  -4   77.49    5.34
  -1  -3  -4   89.10    4.00
  -1  -3  -4   87.65    4.13
   1   3   4   87.24    3.97
   1   3   4   84.82    4.01
   1   3   4   85.65    3.99
  -2  -3  -4    0.06    0.06
  -2  -3  -4    0.43    0.98
   2   3   4    0.16    0.07
   2   3   4    0.15    0.05
   2   3   4    0.05    0.05
  -3  -3  -4    5.32    1.85
   3   3   4    6.39    0.36
   3   3   4    5.23    0.37
  -4  -3  -4   31.75    4.44
  -4  -3  -4   33.93    1.73
   4   3   4   34.08    1.66
  -5  -3  -4   15.60    0.93
  -5  -3  -4   12.35    3.51
   5   3   4   15.24    0.83
  -6  -3  -4   13.71    4.43
  -6  -3  -4   14.69    0.98
   6   3   4   11.96    3.49
   6   3   4   15.36    0.84
  -7  -3  -4    2.50    0.46
   7   3   4    2.82    0.33
  -8  -3  -4    0.34    0.36
   7  -4  -4    5.27    0.89
   6  -4  -4   22.59    1.43
   5  -4  -4    0.10    0.22
  -5   4   4   -0.17    0.11
   4  -4  -4    0.63    0.22
  -4   4   4    0.89    0.14
  -4   4   4    3.59    2.16
   3  -4  -4   21.71    1.25
   3  -4  -4   25.90    3.33
  -3   4   4   22.50    1.12
   2  -4  -4   67.57    4.66
   2  -4  -4   58.59    3.04
   1  -4  -4   28.19    2.60
   1  -4  -4   23.52    1.26
  -1   4   4   23.27    1.12
  -1   4   4   23.52    1.28
   0  -4  -4   95.92    5.70
   0  -4  -4   82.40    4.12
   0   4   4   87.15    4.06
  -1  -4  -4   20.62    0.98
  -1  -4  -4   17.81    2.33
   1   4   4   19.56    0.95
  -2  -4  -4    0.22    1.05
  -2  -4  -4    1.20    0.14
   2   4   4    1.16    0.11
  -3  -4  -4   48.91    2.34
   3   4   4   47.69    2.30
  -4  -4  -4   31.61    1.62
  -4  -4  -4   28.24    4.10
   4   4   4   32.86    1.56
  -5  -4  -4   28.16    4.76
  -5  -4  -4   30.12    1.61
   5   4   4   30.63    1.51
  -6  -4  -4    0.47    0.22
  -6  -4  -4    1.98    3.31
   6   4   4    0.69    0.16
  -7  -4  -4    0.12    0.27
   7   4   4    0.23    0.15
  -8  -4  -4    5.72    0.78
   8   4   4    6.22    0.48
  -9  -4  -4    4.94    0.76
   6  -5  -4   12.46    1.03
   5  -5  -4    7.01    0.74
  -5   5   4    7.17    0.48
   4  -5  -4   61.98    3.10
  -4   5   4   60.30    2.92
   3  -5  -4   32.13    3.61
   3  -5  -4   25.53    1.46
  -3   5   4   26.20    1.34
   2  -5  -4  107.27    6.63
   2  -5  -4   94.82    4.71
  -2   5   4   94.71    4.60
   1  -5  -4    1.21    1.06
   1  -5  -4    0.54    0.16
  -1   5   4    0.49    0.10
  -1   5   4    0.63    0.08
   0  -5  -4    1.77    1.19
   0  -5  -4    0.65    0.15
   0   5   4    1.12    0.09
   0   5   4    0.99    0.13
  -1  -5  -4   18.32    2.58
  -1  -5  -4   19.27    1.02
  -1  -5  -4   19.53    0.95
   1   5   4   18.87    0.92
   1   5   4   18.86    0.96
  -2  -5  -4  102.80    4.41
  -2  -5  -4   82.39    6.37
   2   5   4   94.83    4.42
  -3  -5  -4   17.20    0.88
  -3  -5  -4   15.60    2.81
   3   5   4   17.16    0.86
   3   5   4   16.74    0.86
  -4  -5  -4   38.11    1.86
  -4  -5  -4   31.44    4.44
   4   5   4   38.34    1.80
  -5  -5  -4   11.68    0.76
  -5  -5  -4   10.64    3.59
   5   5   4   12.29    0.67
  -6  -5  -4    3.94    0.49
  -6  -5  -4    5.39    4.20
   6   5   4    3.78    0.33
  -7  -5  -4   19.04    1.21
   7   5   4   17.90    1.00
  -8  -5  -4    9.17    0.96
   8   5   4    9.93    0.64
   5  -6  -4   24.62    1.55
  -5   6   4   22.73    1.25
   4  -6  -4   13.75    0.97
  -4   6   4   13.13    0.78
   3  -6  -4    9.17    0.70
  -3   6   4    8.16    0.54
   2  -6  -4   54.60    2.87
   2  -6  -4   64.13    4.99
  -2   6   4   56.56    2.77
   1  -6  -4   27.13    3.33
  -1   6   4   26.49    1.34
   0  -6  -4  191.46    9.30
   0  -6  -4  215.90   11.57
   0   6   4  191.58    9.23
  -1  -6  -4   54.94    2.73
  -1  -6  -4   60.60    4.93
  -1  -6  -4   58.84    2.83
   1   6   4   58.07    2.76
   1   6   4   58.11    2.70
  -2  -6  -4  141.13    6.19
  -2  -6  -4  117.64    8.41
  -2  -6  -4  132.64    6.29
   2   6   4  136.21    6.23
   2   6   4  136.37    6.19
  -3  -6  -4    3.34    0.24
   3   6   4    3.24    0.22
   3   6   4    3.08    0.25
  -4  -6  -4   -0.05    2.08
  -4  -6  -4    0.04    0.11
   4   6   4    0.26    0.09
  -5  -6  -4    1.03    2.66
  -5  -6  -4    4.53    0.40
   5   6   4    4.43    0.32
  -6  -6  -4   40.91    2.11
   6   6   4   39.58    1.98
  -7  -6  -4    3.56    0.56
   7   6   4    3.34    0.33
   8   6   4    7.20    0.52
   5  -7  -4   10.01    1.13
  -5   7   4    9.92    0.71
   4  -7  -4    0.34    0.40
  -4   7   4   -0.16    0.18
   3  -7  -4    6.27    0.66
  -3   7   4    7.12    0.65
   2  -7  -4    7.65    0.65
  -2   7   4    8.29    0.53
   1  -7  -4   65.34    5.46
   1  -7  -4   59.41    3.08
  -1   7   4   61.80    2.99
  -1   7   4   62.23    2.97
   0  -7  -4   23.15    3.59
   0  -7  -4   22.89    1.25
   0   7   4   22.22    1.17
   0   7   4   22.29    1.10
  -1  -7  -4    7.05    2.21
  -1  -7  -4    5.52    0.46
   1   7   4    5.70    0.33
   1   7   4    5.72    0.39
  -2  -7  -4   90.19    4.21
  -2  -7  -4   77.30    6.69
  -2  -7  -4   85.66    4.06
   2   7   4   87.60    4.07
   2   7   4   92.34    4.14
  -3  -7  -4   29.62    4.50
  -3  -7  -4   41.99    1.85
   3   7   4   39.07    1.86
  -4  -7  -4  162.74    7.51
   4   7   4  160.24    7.50
  -5  -7  -4   35.27    1.73
  -5  -7  -4   23.82    5.45
   5   7   4   35.76    1.69
  -6  -7  -4   50.58    2.55
   6   7   4   50.99    2.46
  -7  -7  -4    1.81    0.35
   7   7   4    1.95    0.27
  -8  -7  -4    1.18    0.48
   8   7   4    0.50    0.18
   4  -8  -4   16.81    1.31
  -4   8   4   18.07    1.07
   3  -8  -4   48.52    2.58
  -3   8   4   46.29    2.55
   2  -8  -4   16.42    1.12
  -2   8   4   17.72    0.99
   1  -8  -4   24.36    1.40
  -1   8   4   23.95    1.28
  -1   8   4   24.46    1.21
   0  -8  -4    0.07    0.19
   0   8   4    0.01    0.13
   0   8   4    0.05    0.09
  -1  -8  -4   14.99    3.26
  -1  -8  -4   14.53    0.92
   1   8   4   14.57    0.83
   1   8   4   14.38    0.75
  -2  -8  -4    4.35    2.68
  -2  -8  -4    4.84    0.45
   2   8   4    4.28    0.29
   2   8   4    4.12    0.35
  -3  -8  -4   35.28    5.02
   3   8   4   45.72    2.05
  -4  -8  -4   13.71    0.71
   4   8   4   13.43    0.72
  -5  -8  -4    0.17    0.15
   5   8   4    0.18    0.10
  -6  -8  -4   44.30    2.22
   6   8   4   44.23    2.17
  -7  -8  -4   17.85    1.11
   7   8   4   17.32    0.95
  -8  -8  -4   49.52    2.61
   8   8   4   49.19    2.43
   2  -9  -4    2.24    0.50
  -2   9   4    3.18    0.44
   1  -9  -4   21.42    1.33
  -1   9   4   21.32    1.10
  -1   9   4   20.41    1.18
   0  -9  -4   35.58    1.95
   0   9   4   37.20    1.75
   0   9   4   34.06    1.84
  -1  -9  -4   72.96    3.75
   1   9   4   76.71    3.56
   1   9   4   76.50    3.66
  -2  -9  -4   17.95    1.09
   2   9   4   17.03    0.90
  -3  -9  -4   16.60    1.06
   3   9   4   17.01    0.87
   4   9   4    0.18    0.09
   6   9   4    0.61    0.15
   7   9   4   12.01    0.71
   1 -10  -4    2.29    0.46
  -1  10   4    2.02    0.34
   0 -10  -4    6.14    0.77
   0  10   4    6.13    0.49
   0  10   4    5.54    0.54
  -1 -10  -4    0.14    0.31
   1  10   4    0.35    0.17
   1  10   4    0.04    0.19
  -2 -10  -4    7.29    0.74
   2  10   4    7.05    0.53
   3  10   4   19.05    1.00
  -4 -10  -4   25.52    1.50
   4  10   4   24.03    1.26
   5  10   4   38.22    1.88
   6  10   4    5.02    0.48
  -3 -11  -4    4.73    0.73
   3  11   4    4.16    0.38
  -3  -7   5    8.79    0.84
  -2  -7   5    8.43    0.79
  -2  -7   5    6.39    0.60
  -5  -6   5   14.08    1.07
  -5  -6   5   13.39    1.18
  -4  -6   5    0.11    0.49
  -4  -6   5    0.22    0.29
  -3  -6   5    0.61    0.31
  -2  -6   5   16.41    0.94
  -2  -6   5   16.13    1.05
  -1  -6   5   21.44    1.25
  -1  -6   5   20.42    1.15
   0  -6   5   43.52    2.33
   0  -6   5   45.26    2.25
  -1   6  -5    3.87    0.47
   1  -6   5    3.78    0.49
  -6  -5   5    0.59    0.39
  -6  -5   5    0.95    0.47
  -5  -5   5    0.04    0.37
  -5  -5   5    0.68    0.32
  -4  -5   5   -0.33    0.32
  -4  -5   5   -0.34    0.26
  -3  -5   5   18.87    1.15
  -3  -5   5   19.25    1.15
  -2  -5   5    4.42    0.47
  -2  -5   5    4.46    0.50
  -1  -5   5   15.32    0.97
  -1  -5   5   15.86    0.91
  -1  -5   5   17.70    0.97
   0  -5   5    1.83    0.26
   0  -5   5    1.67    0.29
   1  -5   5    1.19    0.29
   1  -5   5    0.52    0.32
  -2   5  -5   13.41    0.86
   2  -5   5   14.32    0.88
  -3   5  -5    7.21    0.60
   3  -5   5    7.77    0.65
  -7  -4   5    4.93    0.79
   6   4  -5    0.08    0.29
  -6  -4   5    0.94    0.39
  -5  -4   5    5.81    0.70
  -4  -4   5    4.30    0.57
  -4  -4   5    5.52    0.38
  -4  -4   5    5.39    0.58
  -3  -4   5   37.44    1.94
  -3  -4   5   34.63    1.89
   2   4  -5    0.15    0.15
  -2  -4   5   -0.05    0.17
  -2  -4   5    0.03    0.16
  -1  -4   5    2.86    0.36
  -1  -4   5    2.78    0.28
   0  -4   5    1.47    0.25
   0  -4   5    1.78    0.25
   1  -4   5   15.50    0.92
   1  -4   5   17.67    1.11
  -2   4  -5   17.45    0.99
   2  -4   5   16.93    0.98
  -3   4  -5    8.64    0.61
   3  -4   5    9.31    0.65
  -4   4  -5    3.53    0.43
   4  -4   5    5.10    0.51
   7   3  -5    4.02    0.58
  -7  -3   5    4.76    0.81
  -6  -3   5   11.40    0.98
  -5  -3   5   30.09    1.74
   4   3  -5    4.18    0.50
  -4  -3   5    5.29    0.52
  -3  -3   5   17.08    1.03
  -3  -3   5   17.69    0.91
  -2  -3   5    1.97    0.30
  -2  -3   5    2.16    0.31
  -1  -3   5   15.26    0.89
  -1  -3   5   16.00    0.83
   0  -3   5    1.20    0.17
   0  -3   5    0.89    0.18
   1  -3   5   47.63    4.18
   1  -3   5   53.18    2.50
   1  -3   5   51.00    2.52
   1  -3   5   55.60    3.36
  -2   3  -5    0.17    0.11
   2  -3   5    0.14    2.43
   2  -3   5    0.14    0.14
   2  -3   5    0.14    0.13
  -3   3  -5    2.61    0.30
   3  -3   5    3.05    0.34
   4  -3   5    4.47    0.45
   5  -3   5    7.01    0.60
   8   2  -5    6.48    0.83
  -8  -2   5    4.59    0.76
   7   2  -5    1.52    0.38
  -7  -2   5    1.01    0.46
   6   2  -5   14.67    1.01
  -6  -2   5   13.77    1.09
   5   2  -5    0.98    0.27
  -5  -2   5    1.16    0.32
  -4  -2   5   -0.03    0.08
  -4  -2   5   -0.13    0.21
  -3  -2   5   15.96    0.80
  -3  -2   5   15.30    0.95
  -2  -2   5   14.88    0.83
  -2  -2   5   12.62    0.72
  -1  -2   5  100.11    4.67
  -1  -2   5   99.94    4.70
   0   2  -5    1.32    0.19
   0  -2   5    1.49    0.21
   0  -2   5    1.29    0.17
   0  -2   5    1.51    0.20
   1  -2   5   28.20    1.43
   1  -2   5   29.06    2.31
   1  -2   5   28.36    2.93
   1  -2   5   28.68    1.42
   1  -2   5   28.18    1.38
   1  -2   5   27.56    1.41
  -2   2  -5    0.85    0.14
   2  -2   5    2.23    2.09
   2  -2   5    0.94    1.28
   2  -2   5    1.05    0.17
   2  -2   5    0.73    0.14
   3  -2   5   13.33    0.77
   3  -2   5   13.55    0.76
   3  -2   5   12.16    3.90
   4  -2   5   -0.09    0.16
   5  -2   5   24.34    1.33
   6  -2   5    0.43    0.26
   8   1  -5   13.51    1.17
  -8  -1   5   15.80    1.48
   7   1  -5    1.22    0.37
  -7  -1   5    0.83    0.46
   6   1  -5    3.19    0.50
  -6  -1   5    3.99    0.59
   5   1  -5    0.14    0.22
  -5  -1   5    0.22    0.26
   4   1  -5   17.54    1.09
  -4  -1   5   18.87    0.92
  -4  -1   5   18.77    1.14
  -4  -1   5   19.68    0.91
   3   1  -5   10.09    0.68
  -3  -1   5   10.91    0.55
  -3  -1   5   10.36    0.70
  -2  -1   5   45.20    2.15
  -2  -1   5   39.95    2.02
  -1  -1   5    8.11    0.46
   0  -1   5    0.62    0.23
   0  -1   5    0.69    0.47
   0  -1   5    0.60    0.11
   0  -1   5    0.60    0.40
   0  -1   5    0.70    0.11
   1  -1   5   29.00    1.43
   1  -1   5   26.57    2.38
   1  -1   5   29.27    1.45
   1  -1   5   30.46    1.42
   1  -1   5   29.29    1.41
   1  -1   5   29.65    2.73
   2  -1   5    4.71    2.00
   2  -1   5    4.67    0.33
   2  -1   5    4.54    1.52
   2  -1   5    4.59    0.33
   3  -1   5   78.41    5.90
   3  -1   5   85.52    7.29
   3  -1   5   85.64    3.97
   4  -1   5    0.16    0.12
   4  -1   5   -0.10    1.97
   4  -1   5   -1.75    3.30
   5  -1   5   11.42    0.74
   7  -1   5    5.67    0.57
   8   0  -5    0.32    0.40
  -8   0   5    1.39    0.58
   7   0  -5    0.29    0.32
  -7   0   5    0.97    0.45
   6   0  -5   13.79    0.95
  -6   0   5   14.25    1.06
   5   0  -5    2.05    0.33
  -5   0   5    1.49    0.31
   4   0  -5   65.84    3.40
  -4   0   5   75.00    3.20
  -4   0   5   68.63    3.19
  -4   0   5   67.34    3.19
  -4   0   5   67.01    3.45
   3   0  -5    0.52    0.17
  -3   0   5    0.77    0.10
  -3   0   5    1.00    0.18
  -3   0   5    0.86    0.20
  -3   0   5    0.41    0.99
  -3   0   5    0.71    0.10
  -2   0   5   19.68    1.03
  -2   0   5   15.31    1.63
  -2   0   5   18.32    0.88
  -2   0   5   19.65    0.91
  -2   0   5   17.86    0.87
   1   0  -5    0.28    0.11
  -1   0   5    0.25    0.44
  -1   0   5    0.56    0.07
  -1   0   5    0.38    0.08
  -1   0   5    0.42    0.07
   0   0  -5   21.88    1.34
   0   0   5   25.24    1.24
   0   0   5   29.06    1.86
   0   0   5   24.35    1.22
   0   0   5   23.74    1.20
   1   0   5   32.23    1.55
   1   0   5   30.36    1.58
   1   0   5   36.57    2.86
  -2   0  -5   33.66    1.57
   2   0   5   29.93    1.54
   2   0   5   32.51    3.59
   2   0   5   30.12    1.54
  -3   0  -5    9.66    0.58
   3   0   5    7.93    2.85
   3   0   5    8.95    0.55
   4   0   5    0.18    3.04
   4   0   5    0.32    0.12
   4   0   5    0.37    1.59
   5   0   5   14.21    0.83
   6   0   5    1.00    0.22
   7   0   5   24.18    1.35
   8  -1  -5    0.90    0.50
   7  -1  -5    6.87    0.78
  -7   1   5    7.05    0.91
   6  -1  -5   11.33    0.90
  -6   1   5   12.91    0.99
   5  -1  -5    7.28    0.61
  -5   1   5    6.81    0.65
   4  -1  -5    5.31    0.49
  -4   1   5    5.63    0.31
  -4   1   5    5.68    1.93
  -4   1   5    5.93    0.32
  -4   1   5    6.36    0.56
   3  -1  -5    0.26    0.15
  -3   1   5    0.42    1.03
  -3   1   5    0.30    0.08
  -3   1   5    0.27    0.06
  -3   1   5    0.29    0.15
  -2   1   5   58.05    2.63
  -2   1   5   54.28    2.49
  -2   1   5   45.22    3.41
   1  -1  -5    2.84    0.26
  -1   1   5    2.60    0.74
  -1   1   5    2.67    0.15
  -1   1   5    3.17    0.20
  -1   1   5    3.00    0.17
   0  -1  -5  195.16    8.83
   0   1   5  187.37    8.77
   0   1   5  177.62    8.80
   0   1   5  208.24    9.66
   0   1   5  185.67    8.79
   0   1   5  186.61    8.75
  -1  -1  -5   10.44    0.59
   1   1   5   12.48    1.80
   1   1   5   10.64    0.57
   1   1   5   10.78    0.55
   1   1   5   10.60    0.58
  -2  -1  -5   22.33    1.14
   2   1   5   24.14    3.04
   2   1   5   21.92    1.11
   2   1   5   21.79    1.11
  -3  -1  -5    0.92    0.16
   3   1   5   -0.40    1.84
   3   1   5    1.07    0.16
   3   1   5    1.07    0.15
  -4  -1  -5   12.21    0.72
  -4  -1  -5    7.73    2.78
   4   1   5   11.11    0.66
   4   1   5   11.28    0.66
  -5  -1  -5   21.61    1.23
   5   1   5   26.31    4.81
   5   1   5   20.06    1.13
   6   1   5    6.45    0.51
   7   1   5    4.10    0.57
  -8  -1  -5    0.10    0.41
   8   1   5   -0.01    0.24
   7  -2  -5   11.59    1.01
   6  -2  -5    3.42    0.55
  -6   2   5    2.55    0.57
   5  -2  -5    0.69    0.23
  -5   2   5   -0.27    1.88
  -5   2   5   -0.08    0.26
   4  -2  -5    3.26    0.40
  -4   2   5    3.15    0.56
  -4   2   5    3.82    2.11
  -4   2   5    3.62    0.22
   3  -2  -5   12.55    0.78
  -3   2   5   12.84    0.63
  -3   2   5   10.17    2.21
  -3   2   5   13.04    0.81
   2  -2  -5   63.20    3.19
  -2   2   5   71.58    3.23
  -2   2   5   67.89    3.08
  -2   2   5   59.31    4.30
   1  -2  -5   15.15    0.86
  -1   2   5   16.55    1.73
  -1   2   5   15.71    0.78
   0   2   5   13.56    0.69
   0   2   5   14.93    1.63
   0   2   5   13.18    0.67
  -1  -2  -5    3.66    0.28
   1   2   5    3.71    0.24
   1   2   5    3.38    1.11
   1   2   5    3.72    0.25
  -2  -2  -5   74.86    3.44
   2   2   5   71.60    3.41
   2   2   5   70.86    3.37
  -3  -2  -5    9.36    0.58
  -3  -2  -5    7.99    2.29
   3   2   5   10.12    0.56
   3   2   5    9.60    0.53
  -4  -2  -5   88.55    4.18
   4   2   5   84.90    4.11
  -5  -2  -5    9.45    0.66
   5   2   5    9.05    0.57
  -6  -2  -5    5.10    0.51
   6   2   5    4.16    0.39
  -7  -2  -5    0.19    0.37
  -8  -2  -5    1.28    0.44
   8   2   5    1.63    0.32
   7  -3  -5    0.43    0.44
   6  -3  -5   -0.20    0.29
   5  -3  -5   22.88    1.39
  -5   3   5   23.44    1.14
   4  -3  -5   13.18    0.87
  -4   3   5   17.59    3.10
  -4   3   5   13.29    0.69
   3  -3  -5   61.54    3.12
  -3   3   5   64.06    3.16
  -3   3   5   63.98    2.97
   2  -3  -5   17.60    1.03
   2  -3  -5   22.39    2.34
  -2   3   5   17.80    0.91
   1  -3  -5    8.21    0.52
  -1   3   5    8.17    0.45
   0  -3  -5   19.38    0.98
   0   3   5   17.83    0.97
   0   3   5   19.25    0.90
  -1  -3  -5   10.11    1.95
   1   3   5   10.21    0.52
   1   3   5    9.60    0.54
   1   3   5    9.97    0.55
  -2  -3  -5   77.33    6.13
   2   3   5   98.47    4.34
   2   3   5   90.23    4.32
   2   3   5  101.15    4.35
  -3  -3  -5    4.28    0.32
  -3  -3  -5    3.25    1.78
   3   3   5    4.08    0.28
   3   3   5    4.23    0.29
   3   3   5    3.78    0.27
  -4  -3  -5    7.25    0.51
  -4  -3  -5    5.70    2.52
   4   3   5    7.14    0.45
  -5  -3  -5    1.10    0.22
  -5  -3  -5    1.35    2.82
   5   3   5    0.80    2.33
   5   3   5    1.18    0.19
  -6  -3  -5   20.40    1.21
   6   3   5   19.01    1.07
  -7  -3  -5    6.17    0.68
   7   3   5    6.17    0.50
  -8  -3  -5   16.44    1.19
   8   3   5   15.26    0.96
   7  -4  -5    3.04    0.61
   6  -4  -5    1.03    0.41
   5  -4  -5   24.12    1.45
  -5   4   5   24.48    1.22
  -4   4   5    3.32    2.25
   3  -4  -5    2.17    1.37
  -3   4   5    2.78    2.73
   2  -4  -5    3.96    1.35
   2  -4  -5    2.35    0.30
  -2   4   5    2.62    0.20
   1  -4  -5   96.69    5.92
   1  -4  -5   87.33    4.16
  -1   4   5   82.29    3.99
  -1   4   5   83.56    4.06
   0  -4  -5   39.32    1.93
   0  -4  -5   43.30    3.54
   0   4   5   37.71    1.88
   0   4   5   38.70    1.83
  -1  -4  -5  120.69    5.37
  -1  -4  -5  106.51    7.20
   1   4   5  112.92    5.35
   1   4   5  117.36    5.32
  -2  -4  -5   12.25    2.40
   2   4   5   13.34    0.71
   2   4   5   14.00    0.70
  -3  -4  -5    4.09    0.31
  -3  -4  -5    2.71    1.88
   3   4   5    3.96    0.27
   3   4   5    4.12    0.28
  -4  -4  -5   11.30    3.09
  -4  -4  -5   16.50    0.91
   4   4   5   16.53    0.86
  -5  -4  -5    1.43    0.24
  -5  -4  -5   -0.89    2.54
  -6  -4  -5   35.09    1.90
   6   4   5   35.24    1.78
  -7  -4  -5   -0.01    0.27
   7   4   5    0.29    0.16
  -8  -4  -5    2.37    0.48
   8   4   5    3.11    0.38
   6  -5  -5    3.52    0.59
   5  -5  -5    4.31    0.63
  -5   5   5    3.84    0.36
   4  -5  -5   -0.08    0.26
  -4   5   5    0.06    0.14
   3  -5  -5   16.99    1.04
  -3   5   5   16.89    3.57
  -3   5   5   16.67    0.88
   2  -5  -5    0.08    0.16
   2  -5  -5   -0.02    1.34
  -2   5   5    0.24    0.10
   1  -5  -5   62.26    2.99
  -1   5   5   59.87    2.88
  -1   5   5   59.88    2.81
   0  -5  -5    1.95    0.26
   0  -5  -5    1.55    0.21
   0  -5  -5    1.69    1.36
   0   5   5    2.32    0.19
   0   5   5    1.74    0.12
  -1  -5  -5   -0.20    1.30
  -1  -5  -5    0.03    0.07
  -1  -5  -5    0.03    0.10
   1   5   5    0.17    0.07
  -2  -5  -5    0.72    0.12
  -2  -5  -5    1.37    1.63
   2   5   5    0.67    0.11
   2   5   5    0.71    0.11
  -3  -5  -5   63.67    2.95
   3   5   5   62.52    2.92
   3   5   5   58.85    2.92
  -4  -5  -5   18.99    1.00
  -4  -5  -5   14.16    3.50
   4   5   5   18.86    0.95
   4   5   5   17.53    0.93
  -5  -5  -5   23.57    5.13
  -5  -5  -5   24.23    1.33
   5   5   5   24.72    1.25
  -6  -5  -5    5.13    0.52
   6   5   5    5.27    0.40
  -7  -5  -5    0.16    0.30
   7   5   5    0.15    0.15
  -8  -5  -5    3.80    0.58
   8   5   5    4.70    0.44
   5  -6  -5    1.29    0.45
  -5   6   5    0.74    0.22
   4  -6  -5    9.21    0.84
  -4   6   5    9.17    0.60
   3  -6  -5   19.96    1.25
  -3   6   5   20.67    1.07
   2  -6  -5    7.70    2.22
   2  -6  -5    4.86    0.50
  -2   6   5    4.12    3.31
  -2   6   5    4.90    0.37
   1  -6  -5    4.22    1.88
   1  -6  -5    5.56    0.47
  -1   6   5    5.30    0.29
  -1   6   5    5.30    0.37
   0  -6  -5    1.13    1.43
   0  -6  -5    0.38    0.15
   0   6   5    0.41    0.10
  -1  -6  -5   32.95    1.60
  -1  -6  -5   31.04    3.86
  -1  -6  -5   32.35    1.68
   1   6   5   33.01    1.61
  -2  -6  -5    0.78    0.13
  -2  -6  -5    0.95    1.75
   2   6   5    0.62    0.11
   2   6   5    0.81    0.11
  -3  -6  -5   45.29    2.13
   3   6   5   43.93    2.10
   3   6   5   42.56    2.13
  -4  -6  -5    6.92    3.40
  -4  -6  -5    8.85    0.53
   4   6   5    8.05    0.52
   4   6   5    8.73    0.50
  -5  -6  -5   -0.90    2.69
  -5  -6  -5   -0.23    0.15
   5   6   5   -0.01    0.10
  -6  -6  -5    0.14    0.20
   6   6   5    0.34    0.13
  -7  -6  -5    9.90    0.80
  -8  -6  -5    4.45    0.69
   8   6   5    4.68    0.45
   5  -7  -5    2.28    0.59
  -5   7   5    2.61    0.36
   4  -7  -5   14.09    1.08
  -4   7   5   12.54    0.81
   3  -7  -5   10.40    0.85
  -3   7   5    9.64    0.66
   2  -7  -5    0.19    0.24
  -2   7   5    0.30    0.16
   1  -7  -5    0.39    1.87
   1  -7  -5    0.17    0.20
  -1   7   5    0.19    0.13
  -1   7   5    0.35    0.10
   0  -7  -5    9.67    2.37
   0  -7  -5    9.26    0.67
   0   7   5    9.29    0.49
   0   7   5    9.31    0.56
  -1  -7  -5   21.49    3.89
  -1  -7  -5   22.71    1.27
   1   7   5   23.87    1.19
   1   7   5   23.02    1.12
  -2  -7  -5   -1.62    2.88
  -2  -7  -5    0.00    0.11
   2   7   5   -0.03    0.06
   2   7   5    0.14    0.09
  -3  -7  -5    2.17    0.23
   3   7   5    2.31    0.20
   3   7   5    2.40    0.25
  -4  -7  -5    2.60    0.26
  -4  -7  -5    1.96    2.59
   4   7   5    2.19    0.21
  -5  -7  -5   15.48    0.88
   5   7   5   15.41    0.84
  -6  -7  -5    1.93    0.33
   6   7   5    1.87    0.25
  -7  -7  -5   12.07    0.86
   7   7   5   11.27    0.71
  -8  -7  -5    7.32    0.79
   8   7   5    6.52    0.54
   4  -8  -5    1.12    0.48
  -4   8   5    0.83    0.28
   3  -8  -5    0.47    0.37
  -3   8   5    0.80    0.24
   2  -8  -5   15.94    1.33
  -2   8   5   14.32    0.87
   1  -8  -5   12.82    0.90
  -1   8   5   13.14    0.69
  -1   8   5   12.50    0.77
   0  -8  -5   18.07    1.11
   0   8   5   17.84    0.98
   0   8   5   17.64    0.89
  -1  -8  -5   24.00    4.64
  -1  -8  -5   26.87    1.47
   1   8   5   25.24    1.36
   1   8   5   27.85    1.29
  -2  -8  -5    0.08    2.31
   2   8   5   -0.05    0.12
   2   8   5    0.16    0.07
  -3  -8  -5    0.06    0.13
   3   8   5    0.08    0.08
   3   8   5    0.33    0.13
  -4  -8  -5    0.08    0.13
   4   8   5    0.09    0.10
  -5  -8  -5   10.31    0.64
   5   8   5   10.57    0.61
  -6  -8  -5    6.05    0.54
  -7  -8  -5    0.65    0.32
   7   8   5    1.21    0.20
   2  -9  -5   16.34    1.17
  -2   9   5   16.01    0.98
   1  -9  -5    6.75    0.73
  -1   9   5    6.82    0.46
  -1   9   5    6.30    0.53
   0  -9  -5   -0.80    0.43
   0   9   5    0.60    0.15
   0   9   5    0.54    0.19
  -1  -9  -5    0.32    0.26
   1   9   5    0.60    0.19
   1   9   5    0.71    0.14
  -2  -9  -5   14.73    1.00
   2   9   5   15.44    0.88
   2   9   5   15.43    0.80
   3   9   5   20.77    1.05
   4   9   5   10.76    0.62
   6   9   5    1.55    0.22
   7   9   5    0.15    0.18
   1 -10  -5   -0.03    0.40
  -1  10   5   -0.24    0.23
   0 -10  -5    3.97    0.68
   0  10   5    4.84    0.51
   0  10   5    5.22    0.41
  -1 -10  -5    4.09    0.62
   1  10   5    3.57    0.44
   1  10   5    3.87    0.34
   2  10   5   17.42    0.93
  -3 -10  -5   17.02    1.34
   3  10   5   15.17    0.92
   4  10   5    0.29    0.14
   5  10   5    0.82    0.17
   6  10   5    5.26    0.43
  -3 -11  -5   -0.20    0.35
   3  11   5    0.12    0.17
  -3  -6   6   13.30    0.82
  -3  -6   6   11.97    1.04
  -2  -6   6    7.09    0.59
  -1  -6   6    0.14    0.38
  -1  -6   6    1.38    0.32
  -5  -5   6   31.31    2.03
  -5  -5   6   38.85    2.06
  -4  -5   6    6.43    0.72
  -4  -5   6    6.92    0.52
  -4  -5   6    6.40    0.80
  -3  -5   6   30.58    1.77
  -3  -5   6   32.47    1.62
  -3  -5   6   32.46    1.64
  -3  -5   6   30.72    1.76
  -2  -5   6    6.22    0.48
  -2  -5   6    5.00    0.64
  -2  -5   6    6.28    0.63
  -1  -5   6    1.50    0.40
  -1  -5   6    1.01    0.31
  -1  -5   6    0.93    0.30
   0  -5   6   15.27    0.94
   0  -5   6   15.32    1.01
   1  -5   6   18.16    1.08
  -2   5  -6    9.25    0.69
   2  -5   6    9.10    0.73
   2  -5   6   10.05    0.75
  -6  -4   6   12.51    1.14
  -5  -4   6    0.83    0.40
  -5  -4   6    1.28    0.43
  -4  -4   6    1.07    0.34
  -4  -4   6    0.86    0.35
  -4  -4   6    1.19    0.22
  -3  -4   6   15.98    0.86
  -3  -4   6   15.11    1.01
  -3  -4   6   16.23    0.89
  -3  -4   6   15.03    1.01
  -2  -4   6    6.14    0.56
  -2  -4   6    5.78    0.54
  -2  -4   6    5.49    0.43
  -2  -4   6    6.21    0.46
  -1  -4   6   89.68    4.18
  -1  -4   6   85.81    4.23
   0  -4   6    7.54    0.55
   0  -4   6    7.68    0.59
   1  -4   6   35.42    1.81
  -2   4  -6    9.06    0.62
   2  -4   6    8.53    0.64
   2  -4   6    8.66    0.65
   3  -4   6    1.37    0.33
   3  -4   6    1.46    0.26
   7   3  -6    2.95    0.52
   6   3  -6    2.50    0.45
  -6  -3   6    1.93    0.50
  -5  -3   6    0.83    0.37
  -4  -3   6   12.59    0.67
  -4  -3   6   10.76    0.87
  -3  -3   6    9.41    0.72
  -3  -3   6    9.67    0.58
  -2  -3   6   29.20    1.51
  -2  -3   6   28.62    1.63
  -2  -3   6   31.41    1.54
  -2  -3   6   32.66    1.65
  -1  -3   6    7.66    0.50
  -1  -3   6    6.95    0.54
  -1  -3   6    7.02    0.46
   0  -3   6    1.57    0.22
   0  -3   6    1.68    0.22
   0  -3   6    1.42    0.23
   1  -3   6   21.98    1.17
   1  -3   6   20.57    1.15
   1  -3   6   21.98    1.12
   2  -3   6    3.52    0.36
   2  -3   6    3.09    0.36
   3  -3   6   62.20    3.14
   3  -3   6   66.02    3.16
   4  -3   6    1.84    0.32
  -7  -2   6    3.09    0.65
  -5  -2   6    6.75    0.75
  -4  -2   6   53.60    2.79
  -3  -2   6   12.09    0.85
  -3  -2   6   13.50    0.68
  -3  -2   6   13.24    0.70
  -2  -2   6   16.18    0.92
  -2  -2   6   14.04    0.77
  -2  -2   6   14.63    0.80
  -1  -2   6    0.09    0.10
  -1  -2   6   -0.13    0.11
   0  -2   6   15.93    0.85
   0  -2   6   15.07    0.82
   0  -2   6   14.74    0.87
   1  -2   6   25.32    2.18
   1  -2   6   28.51    2.63
   1  -2   6   25.58    1.33
   1  -2   6   25.40    1.27
   1  -2   6   24.78    1.31
   2  -2   6   19.80    1.06
   2  -2   6   19.40    1.06
   3  -2   6    7.88    0.54
   3  -2   6    7.57    0.54
   4  -2   6    0.17    0.23
   5  -2   6    8.46    0.67
   7   1  -6    0.32    0.36
  -7  -1   6    0.90    0.48
  -6  -1   6    7.88    0.96
   5   1  -6    2.58    0.39
  -5  -1   6    3.19    0.53
   4   1  -6    5.35    0.54
  -4  -1   6    5.91    0.58
  -4  -1   6    6.08    0.35
  -3  -1   6    4.57    0.46
  -3  -1   6    4.92    0.29
  -2  -1   6   44.26    2.14
  -2  -1   6   40.34    1.97
  -2  -1   6   40.19    2.00
   1   1  -6   12.57    0.97
  -1  -1   6   14.33    0.75
  -1  -1   6   14.62    0.73
   0  -1   6  110.69    5.04
   0  -1   6  117.79    5.23
   0  -1   6  104.89    5.01
   0  -1   6   94.98    5.26
   1  -1   6   16.04    0.82
   1  -1   6   18.27    2.21
   1  -1   6   16.14    0.86
   1  -1   6   13.79    1.93
   1  -1   6   16.76    0.88
   2  -1   6   11.32    2.75
   2  -1   6    8.66    1.90
   2  -1   6    9.99    0.60
   2  -1   6   10.29    0.61
   3  -1   6    0.02    0.14
   3  -1   6   -0.15    0.10
   4  -1   6    6.98    0.52
   5  -1   6   15.16    0.92
   6  -1   6    4.46    0.51
   7   0  -6   35.51    2.02
  -7   0   6   34.03    2.15
   6   0  -6   26.03    1.66
  -6   0   6   25.16    1.68
   5   0  -6   20.71    1.24
  -5   0   6   20.27    1.34
   4   0  -6    0.33    0.20
  -4   0   6    0.13    0.21
  -4   0   6   -0.09    0.07
  -3   0   6    0.11    0.07
  -3   0   6    0.03    0.07
  -3   0   6    0.24    0.07
  -3   0   6    0.05    0.16
   2   0  -6   37.70    2.18
  -2   0   6   48.80    2.09
  -2   0   6   43.83    2.03
  -2   0   6   46.53    2.05
  -2   0   6   39.58    2.85
   1   0  -6    2.16    0.27
  -1   0   6    1.97    0.19
  -1   0   6    2.32    0.18
  -1   0   6    2.25    0.64
   0   0  -6    9.46    0.58
   0   0   6   11.03    1.22
   0   0   6    9.25    0.54
  -1   0  -6    3.33    0.26
   1   0   6    3.06    0.26
   1   0   6    2.97    1.11
   1   0   6    2.93    0.25
   1   0   6    2.85    0.24
   2   0   6   36.50    1.83
   2   0   6   36.34    1.83
   2   0   6   41.40    4.89
   3   0   6   19.09    1.01
   3   0   6   18.83    1.01
   3   0   6   19.15    4.49
   4   0   6   44.22    2.20
   5   0   6   16.87    0.97
   6   0   6    2.82    0.37
   7   0   6   -0.04    0.27
   7  -1  -6    0.12    0.36
  -7   1   6    0.07    0.43
   6  -1  -6   10.62    0.92
  -6   1   6    7.88    1.03
   5  -1  -6   42.08    2.29
  -5   1   6   44.30    2.40
   4  -1  -6   56.59    2.82
  -4   1   6   45.83    4.75
  -4   1   6   58.13    2.89
  -4   1   6   57.20    2.59
   3  -1  -6  129.90    6.29
  -3   1   6  128.22    6.27
  -3   1   6  133.89    6.06
  -2   1   6   52.95    2.56
  -2   1   6   54.50    2.61
  -2   1   6   58.91    2.77
   1  -1  -6   43.08    2.16
  -1   1   6   43.05    2.07
  -1   1   6   45.29    2.04
  -1   1   6   41.49    2.01
   0  -1  -6    3.96    0.31
   0   1   6    3.63    0.27
   0   1   6    4.67    1.04
  -1  -1  -6    0.51    0.10
   1   1   6    0.51    0.10
   1   1   6    0.65    0.12
   1   1   6    0.90    0.95
  -2  -1  -6   59.56    2.83
   2   1   6   55.67    2.80
   2   1   6   63.90    5.01
   2   1   6   57.34    2.80
  -3  -1  -6   -0.03    0.10
   3   1   6    0.22    0.11
   3   1   6   -0.30    1.79
   3   1   6    0.20    0.08
  -4  -1  -6    7.38    0.53
   4   1   6    5.37    3.58
   4   1   6    7.07    0.49
   5   1   6    2.08    0.29
   7   1   6   11.41    0.80
   7  -2  -6    5.12    0.81
   6  -2  -6    0.25    0.37
   5  -2  -6   30.70    1.73
  -4   2   6    1.00    1.85
   3  -2  -6   -0.08    0.15
  -3   2   6   -0.05    0.07
  -3   2   6   -0.26    1.30
  -3   2   6   -0.01    0.15
   2  -2  -6   12.83    0.80
  -2   2   6   14.41    0.84
  -2   2   6   13.15    0.69
  -2   2   6   12.26    2.05
   1  -2  -6  109.22    5.25
  -1   2   6  109.00    6.31
  -1   2   6  118.33    5.16
  -1   2   6  105.76    5.09
   0  -2  -6   88.67    4.25
   0   2   6   87.07    4.16
   0   2   6   96.49    5.38
   0   2   6   87.07    4.20
  -1  -2  -6  136.98    6.58
   1   2   6  163.91    8.21
   1   2   6  136.30    6.55
   1   2   6  129.49    6.53
  -2  -2  -6   47.05    2.29
   2   2   6   45.21    2.21
   2   2   6   46.85    2.26
   2   2   6   53.05    4.48
   2   2   6   45.87    2.26
  -3  -2  -6   19.28    1.04
   3   2   6   18.96    1.01
   3   2   6   18.68    1.00
   3   2   6   23.56    3.90
  -4  -2  -6    2.40    0.30
   4   2   6    2.63    0.28
   4   2   6    1.38    2.27
  -5  -2  -6    2.04    0.35
   5   2   6    1.70    0.25
   5   2   6    4.50    3.03
  -6  -2  -6   21.73    1.27
   6   2   6   19.70    1.15
  -7  -2  -6    0.97    0.36
   7   2   6    0.51    0.25
   7  -3  -6    6.97    0.96
   6  -3  -6   13.98    1.07
   5  -3  -6    2.42    0.39
   4  -3  -6    3.68    0.48
  -4   3   6    4.42    0.29
  -4   3   6    5.27    2.14
   3  -3  -6   28.01    1.50
  -3   3   6   25.00    3.94
   2  -3  -6    3.05    0.34
  -2   3   6    3.07    0.23
  -2   3   6    3.67    0.36
  -2   3   6    1.89    1.48
   1  -3  -6   68.07    3.50
  -1   3   6   73.68    3.41
  -1   3   6   76.77    4.92
   0  -3  -6    6.36    0.43
   0   3   6    6.37    0.38
   0   3   6    6.61    0.34
   0   3   6    6.59    1.59
   1   3   6    1.11    1.24
  -2  -3  -6    4.99    0.34
   2   3   6    5.04    0.33
   2   3   6    5.01    0.33
   2   3   6    4.82    0.32
  -3  -3  -6   57.29    2.61
  -3  -3  -6   41.70    5.18
   3   3   6   56.02    2.57
   3   3   6   53.65    2.65
   3   3   6   52.79    2.52
  -4  -3  -6   56.58    2.62
  -4  -3  -6   42.71    5.76
   4   3   6   56.58    5.70
   4   3   6   51.49    2.55
  -5  -3  -6   22.52    6.05
  -5  -3  -6   32.39    1.67
   5   3   6   30.38    1.58
   5   3   6   34.11    5.51
  -6  -3  -6   25.72    1.45
   6   3   6   24.28    1.33
  -7  -3  -6    3.51    0.57
   7   3   6    3.93    0.57
  -8  -3  -6   -0.45    0.37
   8   3   6    0.36    0.26
   6  -4  -6    0.32    0.39
   5  -4  -6    1.44    0.37
  -5   4   6    1.09    0.21
   4  -4  -6   18.74    1.20
  -4   4   6   19.42    0.98
   3  -4  -6   20.87    1.20
  -3   4   6   15.91    3.26
  -3   4   6   20.94    1.02
   2  -4  -6   15.42    2.60
   2  -4  -6   11.88    0.79
  -2   4   6   12.22    0.66
   1  -4  -6    1.98    0.26
   1  -4  -6    1.28    0.22
   1  -4  -6    1.52    1.33
  -1   4   6    1.68    0.18
   0  -4  -6    0.81    0.16
   0  -4  -6    0.96    1.26
   0   4   6    1.02    0.09
   0   4   6    0.61    0.11
  -1  -4  -6   45.15    4.28
  -1  -4  -6   47.87    2.27
   1   4   6   46.35    2.24
  -2  -4  -6    9.48    0.54
  -2  -4  -6    8.22    2.26
   2   4   6    9.28    0.52
   2   4   6    8.85    0.53
  -3  -4  -6   50.44    2.42
   3   4   6   48.82    2.39
  -4  -4  -6   11.65    3.29
  -4  -4  -6   12.72    0.76
   4   4   6   16.06    3.45
   4   4   6   12.71    0.72
  -5  -4  -6    0.08    0.16
   5   4   6   -3.63    2.51
   5   4   6    0.09    0.12
  -6  -4  -6    1.94    0.33
   6   4   6    2.18    0.32
  -7  -4  -6    9.97    0.81
   7   4   6    9.18    0.66
  -8  -4  -6   19.65    1.32
   8   4   6   18.45    1.12
   6  -5  -6    7.16    0.94
   5  -5  -6    4.75    0.72
  -5   5   6    2.58    0.39
   4  -5  -6   12.93    0.91
  -4   5   6   11.40    0.68
   3  -5  -6   13.46    0.92
  -3   5   6   12.96    0.71
  -3   5   6   11.96    3.07
   2  -5  -6    0.97    0.23
  -2   5   6    0.79    0.13
  -2   5   6    2.98    1.76
   1  -5  -6    0.86    1.55
   1  -5  -6    0.25    0.17
  -1   5   6    0.17    0.04
  -1   5   6    0.27    0.10
   0  -5  -6   11.51    0.70
   0  -5  -6   10.68    0.67
   0  -5  -6   13.12    2.60
   0   5   6   11.16    0.54
   0   5   6   10.71    0.61
  -1  -5  -6   26.00    1.32
  -1  -5  -6   27.46    3.57
   1   5   6   25.46    1.30
  -2  -5  -6   -1.08    1.57
  -2  -5  -6    0.11    0.08
   2   5   6    0.08    0.07
   2   5   6    0.18    0.07
  -3  -5  -6    2.98    0.27
   3   5   6    2.64    0.23
  -4  -5  -6    1.61    2.45
  -5  -5  -6   15.02    0.90
   5   5   6   14.39    0.82
   5   5   6   15.86    3.76
  -6  -5  -6    8.52    0.68
   6   5   6    8.45    0.57
   7   5   6   11.79    0.75
  -8  -5  -6    5.87    0.80
   8   5   6    6.62    0.55
   5  -6  -6    6.09    0.80
  -4   6   6    0.63    0.20
   3  -6  -6    2.80    0.46
  -3   6   6    1.53    0.21
   2  -6  -6   16.64    1.07
  -2   6   6   22.91    3.77
  -2   6   6   16.82    0.92
   1  -6  -6   18.67    3.56
   1  -6  -6   17.85    1.04
  -1   6   6   16.84    0.82
  -1   6   6   15.94    0.90
  -1   6   6   18.51    3.22
   0  -6  -6   18.14    3.30
   0   6   6   14.52    0.72
   0   6   6   14.90    0.81
  -1  -6  -6   31.69    4.24
  -1  -6  -6   36.32    1.75
   1   6   6   35.09    1.73
  -2  -6  -6    1.33    2.01
  -3  -6  -6    0.21    0.11
  -3  -6  -6   -0.10    2.11
   3   6   6    0.28    0.09
  -4  -6  -6    0.81    2.76
  -4  -6  -6    0.30    0.13
   4   6   6    0.33    0.11
   4   6   6   -0.56    2.51
  -5  -6  -6   19.32    1.07
   5   6   6   18.40    1.00
  -6  -6  -6    1.79    0.32
   6   6   6    1.46    0.24
  -7  -6  -6    2.76    0.43
   7   6   6    2.45    0.35
  -8  -6  -6   -0.42    0.35
   8   6   6    0.00    0.22
   4  -7  -6    2.66    0.54
  -4   7   6    3.85    0.45
  -3   7   6    5.26    0.44
   2  -7  -6   19.64    1.24
  -2   7   6   19.60    1.06
   1  -7  -6   21.93    1.31
  -1   7   6   22.47    1.19
  -1   7   6   23.56    1.10
   0  -7  -6    0.25    0.18
   0  -7  -6    0.24    2.07
   0   7   6    0.47    0.09
   0   7   6    0.18    1.79
   0   7   6    0.45    0.13
  -1  -7  -6    2.79    0.43
  -1  -7  -6    2.85    0.30
  -1  -7  -6    2.98    2.25
   1   7   6    2.87    0.28
   1   7   6    2.80    0.20
  -2  -7  -6   13.22    0.73
   2   7   6   12.60    0.74
   2   7   6   13.28    0.68
  -3  -7  -6   25.56    1.23
  -3  -7  -6   18.88    4.45
   3   7   6   24.62    1.20
   3   7   6   23.44    1.25
  -4  -7  -6    5.09    0.39
   4   7   6    5.51    0.36
  -5  -7  -6   23.13    1.24
   5   7   6   23.31    1.21
  -6  -7  -6   -0.05    0.21
   6   7   6    0.05    0.15
  -7  -7  -6    0.51    0.31
   7   7   6    0.18    0.18
  -8  -7  -6    0.10    0.38
   8   7   6    0.33    0.20
   3  -8  -6    2.24    0.50
   2  -8  -6    7.26    0.76
  -2   8   6    7.63    0.56
   1  -8  -6    0.37    0.28
  -1   8   6    1.25    0.16
  -1   8   6    0.79    0.21
   0  -8  -6    5.47    0.52
   0   8   6    4.85    0.42
   0   8   6    5.23    0.32
   1   8   6   17.17    0.97
   1   8   6   18.19    0.89
  -2  -8  -6   18.35    1.01
   2   8   6   19.28    0.95
   2   8   6   19.54    1.04
  -3  -8  -6   36.93    1.80
   3   8   6   36.13    1.77
  -4  -8  -6    0.61    0.15
   4   8   6    0.61    0.14
  -5  -8  -6    1.17    0.22
   5   8   6    1.19    0.19
  -6  -8  -6    2.86    0.43
   6   8   6    2.87    0.30
  -7  -8  -6   12.02    0.87
   7   8   6   11.60    0.73
   2  -9  -6   -0.37    0.38
  -2   9   6   -0.03    0.21
   1  -9  -6    3.95    0.64
  -1   9   6    3.60    0.35
  -1   9   6    4.06    0.46
   0  -9  -6   20.86    1.39
   0   9   6   21.59    1.07
  -1  -9  -6   -0.04    0.26
   1   9   6    0.41    0.13
   1   9   6    0.51    0.18
   2   9   6    9.80    0.56
   2   9   6   10.28    0.65
   3   9   6    1.03    0.15
   3   9   6    0.80    0.20
   4   9   6    4.10    0.32
   5   9   6   14.70    0.91
   6   9   6    8.11    0.55
   7   9   6   12.76    0.77
   1 -10  -6    4.03    0.58
  -1  10   6    5.50    0.56
   0 -10  -6   20.02    1.36
   0  10   6   21.34    1.07
   0  10   6   19.19    1.17
   1  10   6    0.05    0.15
   1  10   6    0.46    0.21
  -2 -10  -6   -0.67    0.30
   2  10   6   -0.22    0.19
   2  10   6   -0.10    0.13
   3  10   6    0.81    0.17
   3  10   6    0.78    0.24
   4  10   6   17.07    0.91
   5  10   6    0.21    0.18
  -3  -5   7    7.47    0.89
  -3  -5   7    7.88    0.61
  -3  -5   7    6.13    0.68
  -3  -5   7    7.58    0.82
  -2  -5   7    9.71    0.79
  -2  -5   7    8.96    0.87
  -2  -5   7    6.78    0.79
  -2  -5   7    8.79    0.69
  -1  -5   7    5.57    0.58
  -1  -5   7    5.11    0.78
  -1  -5   7    4.45    0.54
  -5  -4   7    0.16    0.48
  -5  -4   7    0.42    0.43
  -4  -4   7   30.43    1.52
  -4  -4   7   30.55    1.57
  -4  -4   7   25.28    1.73
  -4  -4   7   31.66    1.76
  -3  -4   7    3.59    0.59
  -3  -4   7    4.55    0.46
  -3  -4   7    4.14    0.63
  -3  -4   7    5.04    0.44
  -2  -4   7    3.98    0.59
  -2  -4   7    5.69    0.59
  -2  -4   7    5.74    0.47
  -2  -4   7    4.23    0.47
  -1  -4   7   -0.43    0.25
  -1  -4   7    0.01    0.20
  -1  -4   7   -0.10    0.30
   0  -4   7    5.64    0.49
   0  -4   7    5.09    0.53
   1  -4   7    9.83    0.73
   1  -4   7   10.76    0.74
   2  -4   7    2.10    0.33
   2  -4   7    2.59    0.39
  -6  -3   7   17.27    1.37
  -5  -3   7    2.87    0.56
  -4  -3   7    9.67    0.61
  -4  -3   7    8.40    0.85
  -4  -3   7   10.93    0.61
  -3  -3   7    0.63    0.19
  -3  -3   7    0.61    0.19
  -3  -3   7    0.47    0.29
  -3  -3   7    0.24    0.29
  -2  -3   7   12.85    0.84
  -2  -3   7   11.01    0.81
  -2  -3   7   10.86    0.72
  -2  -3   7   11.88    0.69
  -1  -3   7    5.08    0.50
  -1  -3   7    5.46    0.46
  -1  -3   7    5.57    0.43
   0  -3   7   36.53    1.79
   0  -3   7   33.84    1.75
   0  -3   7   32.85    1.75
   1  -3   7   15.05    0.90
   2  -3   7    4.75    0.48
   2  -3   7    4.33    0.48
   3  -3   7    0.73    0.24
   3  -3   7    0.61    0.26
  -6  -2   7   -0.04    0.43
  -4  -2   7   13.90    1.03
  -4  -2   7   13.57    0.74
  -4  -2   7   13.84    0.74
  -3  -2   7    6.72    0.44
  -3  -2   7    7.30    0.46
  -3  -2   7    6.53    0.64
  -2  -2   7   62.24    3.04
  -2  -2   7   61.79    3.02
  -2  -2   7   65.93    3.18
  -1  -2   7    0.89    0.19
  -1  -2   7    0.69    0.26
  -1  -2   7    1.22    0.19
   0  -2   7   17.08    0.96
   0  -2   7   19.12    1.01
   0  -2   7   17.74    0.99
   1  -2   7    0.22    0.15
   1  -2   7   -0.06    0.17
   2  -2   7    6.20    0.48
   2  -2   7    5.51    0.48
   3  -2   7   10.32    0.71
   3  -2   7   11.35    0.77
   4  -2   7   15.83    1.03
   4  -2   7   14.49    0.96
   6   1  -7    0.55    0.38
  -6  -1   7   -0.35    0.43
  -5  -1   7    6.30    0.77
  -4  -1   7    2.29    0.41
  -4  -1   7    2.31    0.23
  -4  -1   7    1.91    0.23
  -3  -1   7    6.25    0.59
  -3  -1   7    6.67    0.42
  -2  -1   7    2.19    0.37
  -2  -1   7    2.34    0.24
  -2  -1   7    2.58    0.25
  -1  -1   7    2.13    0.23
  -1  -1   7    1.98    0.24
   0  -1   7   17.68    0.93
   0  -1   7   16.15    0.90
   1  -1   7    3.91    1.24
   1  -1   7    3.91    1.19
   1  -1   7    3.73    0.33
   1  -1   7    3.11    0.29
   1  -1   7    3.72    0.32
   2  -1   7   56.30    2.75
   2  -1   7   56.29    2.75
   3  -1   7    0.50    0.20
   3  -1   7    0.51    0.17
   4  -1   7   12.08    0.80
   4  -1   7   12.58    0.77
   5  -1   7    0.28    0.25
   7   0  -7    3.21    0.56
  -7   0   7    3.09    0.59
  -6   0   7    2.45    0.55
   5   0  -7   21.40    1.41
  -5   0   7   20.76    1.41
  -4   0   7    0.99    0.28
  -4   0   7    1.25    0.16
  -3   0   7    6.29    0.38
  -3   0   7    5.79    0.34
  -3   0   7    5.43    0.55
   2   0  -7    1.21    0.24
  -2   0   7    1.50    0.19
  -2   0   7    0.64    0.90
  -2   0   7    1.47    0.27
  -2   0   7    1.78    0.17
  -1   0   7    2.37    0.24
  -1   0   7    2.12    0.74
   0   0   7   10.27    0.61
   0   0   7   10.44    0.59
   0   0   7   10.80    1.38
   1   0   7    0.25    1.11
   1   0   7   -0.12    0.11
   2   0   7   11.28    2.82
   2   0   7    9.26    0.58
   2   0   7    9.20    0.57
   3   0   7    4.19    0.37
   3   0   7    3.94    0.35
   4   0   7    7.06    0.52
   4   0   7    6.66    0.49
   5   0   7    0.33    0.31
   6   0   7   20.25    1.21
   7  -1  -7    4.90    0.83
  -7   1   7    5.95    1.02
   6  -1  -7   12.33    0.96
  -6   1   7   10.58    1.08
   5  -1  -7    3.37    0.57
  -5   1   7    3.56    0.61
  -4   1   7   31.67    1.85
  -4   1   7   33.24    1.56
  -3   1   7    7.21    1.84
  -3   1   7    8.26    0.68
  -3   1   7    9.10    0.49
   2  -1  -7    3.41    0.39
  -2   1   7    4.75    0.43
  -2   1   7    4.22    0.25
  -2   1   7    3.77    1.33
  -2   1   7    3.86    0.23
  -2   1   7    4.07    0.29
   1  -1  -7   40.09    2.09
  -1   1   7   42.85    1.99
  -1   1   7   38.13    2.99
  -1   1   7   42.15    1.95
   0  -1  -7   12.61    0.73
   0   1   7   13.15    1.75
   0   1   7   11.77    0.66
   0   1   7   11.29    0.65
  -1  -1  -7   11.65    0.69
   1   1   7   15.92    2.40
   1   1   7   11.36    0.65
   1   1   7   11.70    0.65
   1   1   7   11.47    0.66
  -2  -1  -7    1.05    0.18
   2   1   7    2.21    2.03
   2   1   7    1.20    0.18
   2   1   7    0.93    0.17
  -3  -1  -7    0.26    0.13
   3   1   7    0.40    0.14
   3   1   7   -0.24    2.66
   3   1   7    0.35    0.16
   4   1   7   14.29    0.84
  -5  -1  -7    2.36    0.41
   5   1   7    2.67    0.37
   6   1   7    6.00    0.56
   6  -2  -7    3.94    0.57
   5  -2  -7   -0.40    0.26
  -5   2   7    0.22    0.34
  -4   2   7   14.86    1.05
  -4   2   7   14.85    0.76
   3  -2  -7   21.18    1.26
  -3   2   7   21.94    1.30
  -3   2   7   18.50    3.18
  -3   2   7   22.86    1.08
  -2   2   7   66.38    5.04
  -2   2   7   82.12    3.80
  -2   2   7   79.75    3.62
   1  -2  -7   20.31    1.16
  -1   2   7   22.41    3.01
  -1   2   7   21.30    1.01
  -1   2   7   20.17    0.98
  -1   2   7   21.30    1.06
   0  -2  -7   78.82    3.79
   0   2   7   76.30    3.72
   0   2   7   76.90    3.69
   0   2   7   84.65    5.07
  -1  -2  -7    3.69    0.31
   1   2   7    3.55    0.28
   1   2   7    4.95    1.64
   1   2   7    3.71    0.28
   2   2   7    0.57    0.12
   2   2   7    0.64    0.14
   2   2   7    1.65    1.63
  -3  -2  -7   24.25    1.27
   3   2   7   23.72    1.23
   3   2   7   22.96    1.24
   3   2   7   29.16    4.59
  -4  -2  -7   13.78    0.82
   4   2   7   12.58    0.78
  -5  -2  -7    6.39    0.54
   5   2   7    6.57    0.52
  -6  -2  -7   -0.05    0.24
   6   2   7    0.41    0.22
   7   2   7    1.33    0.30
   6  -3  -7    0.12    0.38
   4  -3  -7   11.91    0.87
  -4   3   7   11.90    0.67
  -3   3   7   22.90    1.42
  -3   3   7   21.33    3.84
  -3   3   7   23.63    1.15
  -2   3   7   23.43    1.45
  -2   3   7   16.03    2.81
  -2   3   7   19.82    1.03
   1  -3  -7    0.08    0.15
  -1   3   7    0.08    0.08
  -1   3   7   -0.12    1.07
   0  -3  -7   69.09    3.45
   0   3   7   76.52    5.00
   0   3   7   69.84    3.38
   0   3   7   71.73    3.33
  -1  -3  -7   61.49    3.12
   1   3   7   74.23    4.99
   1   3   7   61.85    3.08
  -2  -3  -7  139.32    6.24
   2   3   7  120.73    6.16
   2   3   7  133.34    6.19
   2   3   7  137.10    6.20
  -3  -3  -7   36.86    1.85
   3   3   7   35.56    1.81
   3   3   7   37.68    1.82
  -4  -3  -7   50.74    2.43
   4   3   7   47.95    5.68
   4   3   7   48.38    2.36
   4   3   7   46.48    2.38
  -5  -3  -7    0.16    0.18
   5   3   7    0.10    0.17
  -6  -3  -7   -0.03    0.28
  -7  -3  -7    3.88    0.60
   7   3   7    3.87    0.49
   6  -4  -7   20.74    1.47
   5  -4  -7   20.91    1.47
   4  -4  -7   15.94    1.08
  -4   4   7   15.81    0.84
   3  -4  -7    8.94    0.71
  -3   4   7    7.29    2.47
  -3   4   7    9.23    0.52
  -2   4   7    1.48    1.66
   1  -4  -7   16.89    1.03
  -1   4   7   19.36    0.94
   0  -4  -7   12.38    0.77
   0   4   7   12.35    0.69
   0   4   7   13.25    0.63
   0   4   7   15.06    2.56
  -1  -4  -7   43.54    2.10
   1   4   7   41.47    2.06
   1   4   7   42.00    2.01
  -2  -4  -7   27.34    1.40
   2   4   7   27.44    1.36
   2   4   7   27.70    1.38
  -3  -4  -7    2.57    0.28
   3   4   7    2.52    0.25
   3   4   7    2.85    1.95
   3   4   7    3.20    0.27
  -4  -4  -7   67.33    3.25
   4   4   7   65.96    3.21
   4   4   7   62.01    3.21
   4   4   7   76.90    6.53
  -5  -4  -7   51.60    2.57
   5   4   7   50.19    2.51
  -6  -4  -7   71.21    3.51
   6   4   7   68.96    3.41
  -7  -4  -7   18.64    1.21
   7   4   7   17.89    1.08
   5  -5  -7    1.52    0.46
   4  -5  -7    9.37    0.92
  -4   5   7    7.98    0.57
   3  -5  -7   28.65    1.60
  -3   5   7   26.38    1.37
   2  -5  -7   72.47    5.76
  -2   5   7   63.77    3.09
  -2   5   7   59.61    5.53
   1  -5  -7   71.95    3.62
  -1   5   7   71.26    5.58
  -1   5   7   73.23    3.43
   0  -5  -7   36.43    5.14
   0  -5  -7   34.73    1.89
   0   5   7   36.81    1.83
   0   5   7   44.88    3.85
   0   5   7   36.63    1.74
  -1  -5  -7    8.45    2.54
  -1  -5  -7   11.13    0.65
   1   5   7   10.08    0.60
   1   5   7   10.53    0.55
   1   5   7    9.83    2.13
  -2  -5  -7    0.43    0.13
  -2  -5  -7   -2.24    1.98
   2   5   7    2.38    1.58
   2   5   7    0.27    0.10
   2   5   7    0.17    0.10
  -3  -5  -7   27.61    1.41
   3   5   7   27.65    1.40
   3   5   7   27.24    1.37
  -4  -5  -7    4.26    0.37
   4   5   7    3.11    0.32
   4   5   7    3.63    2.53
  -5  -5  -7   21.18    1.18
   5   5   7   20.33    1.12
  -6  -5  -7   10.76    0.80
   6   5   7   11.01    0.70
  -7  -5  -7    4.05    0.60
   7   5   7    3.08    0.43
   5  -6  -7    0.56    0.44
   4  -6  -7   14.80    1.12
  -4   6   7   14.57    0.84
   3  -6  -7    0.22    0.30
  -3   6   7    0.20    0.15
   2  -6  -7   10.89    0.80
  -2   6   7   10.19    0.62
  -1   6   7    3.40    0.31
  -1   6   7    2.58    1.95
   0  -6  -7   16.63    1.04
   0   6   7   21.14    3.20
   0   6   7   19.86    1.00
   0   6   7   19.51    0.90
  -1  -6  -7   54.82    2.78
   1   6   7   55.39    2.75
   1   6   7   69.57    7.59
  -2  -6  -7   86.51    4.10
   2   6   7   85.82    4.09
   2   6   7   86.05    4.03
  -3  -6  -7   73.17    3.40
   3   6   7   68.18    3.39
   3   6   7   71.16    3.36
  -4  -6  -7   31.53    1.57
   4   6   7   29.62    1.53
  -5  -6  -7    2.05    0.35
   5   6   7    1.94    0.26
  -6  -6  -7    1.04    0.27
   6   6   7    1.40    0.23
  -7  -6  -7   12.33    0.91
   7   6   7   11.82    0.78
   4  -7  -7   13.78    1.22
  -4   7   7   15.02    0.89
   3  -7  -7    0.11    0.35
  -3   7   7   -0.11    0.17
   2  -7  -7    0.03    0.28
  -2   7   7    0.23    0.15
   1  -7  -7    0.26    0.28
  -1   7   7    0.09    0.08
  -1   7   7    0.19    0.14
   0  -7  -7   32.11    1.87
   0   7   7   33.40    1.68
   0   7   7   34.15    1.58
  -1  -7  -7    0.64    0.19
   1   7   7    0.65    0.16
   1   7   7    0.75    0.11
   1   7   7    3.69    2.05
  -2  -7  -7    9.19    0.58
   2   7   7    9.52    2.95
   2   7   7    9.08    0.56
   2   7   7    8.82    0.50
  -3  -7  -7    2.06    0.28
   3   7   7    2.12    0.27
   3   7   7    2.00    0.22
  -4  -7  -7   20.28    1.09
   4   7   7   20.25    1.06
  -5  -7  -7   32.64    1.66
   5   7   7   31.22    1.61
  -6  -7  -7   37.17    1.78
   6   7   7   28.81    1.75
  -7  -7  -7   23.75    1.41
   7   7   7   23.83    1.30
   3  -8  -7    0.30    0.40
  -3   8   7    0.13    0.29
   2  -8  -7   20.99    1.38
  -2   8   7   20.78    1.15
  -1   8   7    1.22    0.23
   0   8   7   31.64    1.48
   0   8   7   29.95    1.58
   1   8   7   -0.10    0.14
   1   8   7    0.01    0.09
  -2  -8  -7    0.68    0.20
   2   8   7    0.46    0.12
   2   8   7    0.65    0.17
  -3  -8  -7    0.39    0.18
   3   8   7    0.43    0.11
  -4  -8  -7   24.78    1.29
   4   8   7   24.37    1.25
  -5  -8  -7    2.45    0.38
   5   8   7    2.55    0.29
  -6  -8  -7    2.58    0.45
   6   8   7    1.84    0.28
  -7  -8  -7    0.61    0.33
   7   8   7   -0.06    0.20
   2  -9  -7    9.04    0.94
  -2   9   7    8.23    0.67
   1  -9  -7   12.87    1.00
  -1   9   7   12.42    0.81
   0  -9  -7    0.25    0.32
   0   9   7   -0.08    0.14
   0   9   7    0.09    0.18
   1   9   7    0.07    0.17
   1   9   7   -0.17    0.12
   2   9   7   24.48    1.51
   2   9   7   29.31    1.34
   3   9   7    0.06    0.12
  -4  -9  -7   20.80    1.12
   4   9   7   20.39    1.07
  -5  -9  -7   -0.10    0.22
   5   9   7    0.45    0.16
  -6  -9  -7    0.47    0.28
   6   9   7    0.49    0.19
   0 -10  -7    5.08    0.75
   0  10   7    5.20    0.51
   1  10   7   27.67    1.35
   1  10   7   26.06    1.47
   2  10   7   12.50    0.83
   2  10   7   13.20    0.71
   3  10   7    8.74    0.54
   4  10   7    0.03    0.14
   5  10   7    0.01    0.18
  -2  -4   8   22.51    1.40
  -2  -4   8   22.62    1.26
  -2  -4   8   22.37    1.38
  -2  -4   8   20.31    1.24
  -4  -3   8   14.55    1.17
  -3  -3   8    3.26    0.44
  -3  -3   8    4.46    0.66
  -3  -3   8    4.01    0.55
  -3  -3   8    3.83    0.45
  -2  -3   8   24.99    1.44
  -2  -3   8   23.50    1.27
  -2  -3   8   22.86    1.25
  -2  -3   8   21.22    1.35
  -1  -3   8    0.72    0.29
  -1  -3   8    0.98    0.31
  -1  -3   8    0.75    0.25
   0  -3   8    0.40    0.41
   0  -3   8    0.03    0.23
   1  -3   8    1.32    0.32
   1  -3   8    1.32    0.29
   2  -3   8   19.86    1.18
   2  -3   8   19.19    1.17
  -5  -2   8   16.94    1.33
  -4  -2   8    9.27    0.86
  -3  -2   8    9.11    0.59
  -3  -2   8    9.18    0.59
  -3  -2   8    8.60    0.78
  -2  -2   8   -0.10    0.16
  -2  -2   8    0.03    0.19
  -2  -2   8   -0.42    0.24
  -1  -2   8   -0.09    0.19
  -1  -2   8    0.22    0.17
  -1  -2   8   -0.10    0.24
   0  -2   8   36.50    1.81
   0  -2   8   33.35    1.77
   1  -2   8    0.44    0.20
   1  -2   8    0.25    0.22
   2  -2   8   29.49    1.59
   2  -2   8   30.30    1.60
   3  -2   8    0.40    0.28
   3  -2   8    0.23    0.21
  -5  -1   8   13.15    1.15
  -4  -1   8    0.30    0.40
  -3  -1   8    1.87    0.24
  -3  -1   8    2.31    0.28
  -3  -1   8    1.65    0.35
  -2  -1   8   11.74    0.84
  -2  -1   8   10.09    0.66
  -2  -1   8   11.19    0.64
  -1  -1   8   27.67    1.43
  -1  -1   8   28.80    1.46
   0  -1   8   22.99    1.26
   0  -1   8   23.76    1.24
   0  -1   8   24.44    1.27
   1  -1   8   11.56    0.78
   1  -1   8   10.72    0.69
   2  -1   8    0.20    0.20
   3  -1   8    0.36    0.24
   3  -1   8    0.22    0.19
   4  -1   8   24.33    1.41
   4  -1   8   25.27    1.52
  -6   0   8    1.97    0.60
  -5   0   8    2.20    0.53
  -4   0   8    1.49    0.39
  -4   0   8    1.67    0.21
  -3   0   8   55.90    2.60
  -3   0   8   52.40    2.82
  -2   0   8    6.00    0.41
  -2   0   8    6.23    0.59
  -1   0   8   40.20    2.03
  -1   0   8   43.70    2.07
   0   0   8    0.28    0.15
   0   0   8   -0.13    0.14
   1   0   8    0.84    0.16
   1   0   8    0.74    0.17
   1   0   8    0.82    0.20
   2   0   8   19.89    1.10
   2   0   8   20.47    1.11
   3   0   8   15.82    0.94
   3   0   8   15.86    0.97
   4   0   8   20.33    1.18
   5   0   8    4.76    0.53
   6  -1  -8    0.45    0.40
  -6   1   8    1.40    0.53
  -5   1   8   11.29    1.04
  -4   1   8    9.01    0.52
  -4   1   8    8.37    0.81
  -3   1   8   17.23    1.14
  -3   1   8   18.41    0.93
   2  -1  -8    3.98    0.47
  -2   1   8    5.01    0.31
  -2   1   8    4.58    0.35
  -2   1   8    5.08    0.51
   1  -1  -8    8.41    0.62
  -1   1   8    7.28    1.52
  -1   1   8    9.28    0.50
  -1   1   8    7.86    0.51
   0  -1  -8    5.67    0.46
   0   1   8    5.67    0.38
   0   1   8    5.30    0.40
  -1  -1  -8   86.42    4.24
   1   1   8   84.71    4.17
   1   1   8   99.52    5.75
   1   1   8   84.38    4.19
  -2  -1  -8    8.81    0.58
   2   1   8    8.52    0.55
   2   1   8    7.86    0.55
  -3  -1  -8   33.08    1.67
   3   1   8   32.81    1.64
   3   1   8   29.24    1.62
   4   1   8    0.61    0.22
   5   1   8    0.71    0.25
   6  -2  -8   16.15    1.24
  -4   2   8    8.77    0.50
  -4   2   8    8.08    0.81
  -3   2   8   -0.14    0.22
  -3   2   8    0.17    0.12
  -2   2   8    2.38    0.40
  -2   2   8    1.93    0.24
  -2   2   8    2.95    1.67
   1  -2  -8   36.21    2.03
  -1   2   8   40.82    1.93
  -1   2   8   40.59    1.86
  -1   2   8   39.00    5.04
   0  -2  -8    7.76    0.58
   0   2   8   10.43    2.17
   0   2   8    8.34    0.52
   0   2   8    8.79    0.56
  -1  -2  -8   26.53    1.41
   1   2   8   25.73    1.36
   1   2   8   26.17    1.33
   1   2   8   29.58    3.24
  -2  -2  -8    2.13    0.28
   2   2   8    2.19    0.24
   2   2   8    1.92    0.26
   2   2   8    3.58    2.27
  -3  -2  -8    8.32    0.56
   3   2   8    7.11    0.54
   3   2   8    8.26    0.53
  -4  -2  -8    3.47    0.39
   4   2   8    4.19    0.44
   4   2   8    3.92    0.41
  -5  -2  -8   35.87    1.90
   5   2   8   32.94    1.87
   6   2   8    3.89    0.51
   6  -3  -8    3.92    0.62
  -4   3   8    5.67    0.39
  -3   3   8    5.14    0.37
  -3   3   8    5.56    0.62
  -2   3   8   42.39    2.15
  -2   3   8   39.70    1.94
  -2   3   8   35.50    4.16
   1  -3  -8   13.56    0.89
  -1   3   8   14.35    0.77
  -1   3   8   15.97    2.85
   0  -3  -8    8.86    0.62
   0   3   8    8.95    0.49
   0   3   8    9.07    0.55
   0   3   8   10.52    2.53
  -1  -3  -8    1.60    0.25
   1   3   8    1.72    1.70
   1   3   8    1.93    0.21
   1   3   8    1.33    0.19
  -2  -3  -8    3.20    0.31
   2   3   8    3.46    0.29
   2   3   8    3.15    2.31
   2   3   8    2.68    0.29
  -3  -3  -8   42.62    2.04
   3   3   8   39.08    1.99
   3   3   8   38.56    1.99
  -4  -3  -8    1.99    0.31
   4   3   8    2.29    0.32
  -5  -3  -8   14.06    1.03
   5   3   8   14.42    0.87
  -6  -3  -8   -0.14    0.26
   6   3   8   -0.50    0.21
   5  -4  -8   -0.64    0.39
   4  -4  -8   16.58    1.45
  -4   4   8   19.95    0.98
  -3   4   8    1.71    0.24
  -2   4   8   13.19    0.73
   1  -4  -8    0.87    0.24
  -1   4   8    0.84    0.17
  -1   4   8    2.18    1.95
   0  -4  -8    8.50    0.62
   0   4   8    8.82    0.54
   0   4   8    8.61    0.46
   0   4   8   12.74    2.75
  -1  -4  -8    6.65    0.48
   1   4   8    5.82    2.12
   1   4   8    6.27    0.43
  -2  -4  -8   21.91    1.19
   2   4   8   21.74    1.16
   2   4   8   27.49    4.28
   2   4   8   21.85    1.13
  -3  -4  -8   11.02    0.68
   3   4   8   10.94    0.65
   3   4   8   10.60    0.65
  -4  -4  -8    0.10    0.16
   4   4   8    0.13    0.16
  -5  -4  -8    1.57    0.30
   5   4   8    1.47    0.27
  -6  -4  -8    3.06    0.46
   6   4   8    3.91    0.47
  -7  -4  -8   14.33    1.01
   7   4   8   13.62    0.91
   5  -5  -8    2.22    0.55
  -4   5   8   13.37    0.77
   3  -5  -8    0.53    0.32
  -2   5   8    1.71    0.25
  -1   5   8   -0.11    0.11
   0  -5  -8   31.68    4.64
   0  -5  -8   38.64    2.05
   0   5   8   40.26    1.96
   0   5   8   42.45    4.26
   0   5   8   41.87    1.86
  -1  -5  -8    7.83    0.56
  -1  -5  -8    4.79    2.49
   1   5   8    7.27    0.47
   1   5   8    6.01    1.96
  -2  -5  -8   11.53    3.32
  -2  -5  -8   15.21    0.86
   2   5   8   15.32    0.79
   2   5   8   14.37    0.82
   2   5   8   15.21    3.38
  -3  -5  -8    4.55    0.40
   3   5   8    4.96    0.38
   3   5   8    4.80    0.37
  -4  -5  -8    0.92    0.22
   4   5   8    1.41    0.23
  -5  -5  -8    2.84    0.40
   5   5   8    3.03    0.37
  -6  -5  -8    0.09    0.26
   6   5   8    0.61    0.24
  -7  -5  -8    4.73    0.63
   7   5   8    3.99    0.51
   4  -6  -8   -0.09    0.42
  -4   6   8    0.12    0.21
   3  -6  -8    1.98    0.54
  -3   6   8    1.65    0.24
  -2   6   8   19.74    1.06
  -1   6   8    1.90    0.27
   0  -6  -8   20.54    1.25
   0   6   8   22.62    1.06
   0   6   8   23.92    1.18
  -1  -6  -8    0.95    0.23
   1   6   8    0.90    0.14
   1   6   8    0.82    0.17
  -2  -6  -8    2.00    0.29
   2   6   8    1.45    0.21
   2   6   8    1.63    0.21
  -3  -6  -8    0.04    0.14
   3   6   8    0.32    0.14
   3   6   8    0.04    0.11
  -4  -6  -8   24.51    1.29
   4   6   8   23.30    1.24
   4   6   8   23.78    1.37
  -5  -6  -8    9.98    0.70
   5   6   8   10.22    0.65
  -6  -6  -8    7.39    0.66
   6   6   8    7.54    0.58
  -7  -6  -8    3.46    0.60
   7   6   8    3.90    0.48
  -3   7   8   14.26    0.87
  -2   7   8   10.44    0.68
  -1   7   8    3.73    0.36
   0   7   8    0.36    0.10
   0   7   8    0.46    0.17
  -1  -7  -8    0.50    0.20
   1   7   8    0.59    0.16
   1   7   8    0.83    0.12
  -2  -7  -8   21.37    1.20
   2   7   8   21.72    1.17
   2   7   8   22.53    1.09
  -3  -7  -8    0.92    0.21
   3   7   8    1.15    0.18
   3   7   8    0.97    0.19
  -4  -7  -8   19.05    1.04
   4   7   8   18.88    1.04
   4   7   8   17.30    1.02
  -5  -7  -8    5.33    0.51
   5   7   8    5.26    0.44
  -6  -7  -8    0.31    0.26
   6   7   8   -0.19    0.20
   3  -8  -8    1.67    0.56
  -3   8   8    1.83    0.31
  -2   8   8    0.32    0.23
  -1   8   8    6.93    0.58
   0   8   8    5.21    0.46
  -1  -8  -8   15.06    1.01
   1   8   8   17.78    0.97
   1   8   8   17.88    0.85
  -2  -8  -8   18.35    1.10
   2   8   8   20.10    1.08
   2   8   8   19.73    0.98
  -3  -8  -8    2.41    0.41
   3   8   8    2.34    0.37
   3   8   8    2.26    0.26
  -4  -8  -8    0.62    0.22
   4   8   8    0.35    0.15
   4   8   8    0.52    0.19
  -5  -8  -8    0.57    0.24
   6   8   8   11.61    0.74
   1  -9  -8    6.46    0.81
  -1   9   8    5.99    0.54
   0   9   8    1.22    0.26
   1   9   8    1.41    0.26
   1   9   8    1.10    0.17
  -2  -9  -8    1.55    0.42
   2   9   8    2.04    0.29
   2   9   8    2.15    0.24
  -3  -9  -8    6.36    0.60
   3   9   8    5.99    0.51
   3   9   8    5.84    0.41
  -4  -9  -8    6.16    0.56
   4   9   8    5.84    0.43
   4   9   8    4.76    0.68
  -5  -9  -8    6.12    0.58
   5   9   8    6.06    0.47
   1  10   8    0.33    0.26
   2  10   8    1.35    0.21
   2  10   8    1.23    0.27
   3  10   8    2.28    0.29
   3  10   8    2.90    0.42
   4  10   8    5.21    0.43
  -3  -2   9   48.96    2.77
  -3  -2   9   53.52    2.54
  -2  -2   9   18.03    1.21
  -2  -2   9   17.81    1.10
  -2  -2   9   14.38    1.14
  -2  -2   9   16.96    0.99
  -1  -2   9   59.17    2.89
  -1  -2   9   58.56    2.92
   0  -2   9    6.22    0.55
   1  -2   9    7.48    0.64
   1  -2   9    6.97    0.65
  -4  -1   9    0.35    0.41
  -3  -1   9   20.31    1.40
  -3  -1   9   23.00    1.17
  -2  -1   9    0.13    0.30
  -2  -1   9    0.15    0.19
  -1  -1   9    2.71    0.39
   0  -1   9    5.35    0.58
   0  -1   9    4.83    0.48
   1  -1   9   55.11    2.76
   1  -1   9   56.64    2.78
   2  -1   9   17.63    1.08
   2  -1   9   18.44    1.07
   3  -1   9   35.88    1.83
   3  -1   9   32.90    1.83
  -5   0   9    5.50    0.93
  -4   0   9   19.29    1.37
  -3   0   9    0.56    0.21
  -3   0   9    0.83    0.36
  -2   0   9    4.91    0.42
  -1   0   9   43.64    2.17
  -1   0   9   45.03    2.21
   0   0   9    1.76    0.27
   0   0   9    2.18    0.28
   1   0   9   30.93    1.60
   1   0   9   30.75    1.74
   2   0   9    1.19    0.24
   2   0   9    0.45    0.24
   3   0   9    1.25    0.25
   3   0   9    1.94    0.32
   4   0   9    4.02    0.46
   4   0   9    3.64    0.45
  -5   1   9    1.16    0.48
  -4   1   9    2.84    0.52
  -3   1   9    4.29    0.65
  -3   1   9    5.90    0.43
  -2   1   9   34.00    1.87
  -2   1   9   32.31    1.66
   1  -1  -9   11.62    0.87
  -1   1   9   11.73    0.69
  -1   1   9   12.61    0.72
   0  -1  -9   17.48    1.11
   0   1   9   18.79    0.98
   0   1   9   16.56    0.94
  -1  -1  -9    1.24    0.28
   1   1   9    1.46    0.26
   1   1   9    1.09    0.20
   2   1   9    3.59    0.39
   2   1   9    3.32    0.44
   3   1   9   34.33    1.79
   3   1   9   34.93    1.80
   4   1   9    4.11    0.45
   4   1   9    4.61    0.51
  -5   2   9    0.10    0.65
  -4   2   9   23.65    1.56
  -3   2   9    1.89    0.45
  -3   2   9    2.65    0.30
  -2   2   9   21.11    1.12
  -2   2   9   21.36    1.33
   1  -2  -9    1.85    0.33
  -1   2   9    1.63    0.23
   0  -2  -9    1.84    0.33
   0   2   9    1.88    0.24
   0   2   9    1.59    0.22
  -1  -2  -9    7.58    0.59
   1   2   9    7.89    0.52
   1   2   9    7.64    0.53
  -2  -2  -9   13.02    0.80
   2   2   9   12.33    0.74
   2   2   9   11.92    0.75
   3   2   9   15.08    0.89
   4   2   9    4.22    0.60
  -5   3   9    0.12    0.51
  -4   3   9   13.35    1.11
  -3   3   9    2.33    0.30
  -2   3   9    1.57    0.22
  -2   3   9    1.71    0.40
   1  -3  -9    0.23    0.22
  -1   3   9   -0.01    0.13
   0  -3  -9   40.05    2.21
   0   3   9   42.54    2.01
   0   3   9   43.06    2.08
  -1  -3  -9   10.57    0.70
   1   3   9    9.55    0.62
   1   3   9   10.19    0.59
  -2  -3  -9   19.67    1.12
   2   3   9   19.42    1.08
   2   3   9   20.42    1.06
  -3  -3  -9    3.13    0.39
   3   3   9    3.39    0.38
   3   3   9    3.74    0.35
  -4  -3  -9    0.16    0.19
   4   3   9   -0.14    0.21
   4   3   9    0.11    0.15
  -5  -3  -9    5.51    0.58
   5   3   9    7.60    0.57
  -3   4   9    1.03    0.20
  -2   4   9   20.53    1.09
   1  -4  -9    3.74    0.50
  -1   4   9    4.09    0.34
   0  -4  -9   24.81    1.42
   0   4   9   25.58    1.21
   0   4   9   24.74    1.31
  -1  -4  -9    9.23    0.64
   1   4   9    8.08    0.55
   1   4   9    8.74    0.52
  -2  -4  -9    0.77    0.21
   2   4   9    0.83    0.19
   2   4   9    0.64    0.17
  -3  -4  -9    0.10    0.15
   3   4   9    0.17    0.17
   3   4   9    0.24    0.14
  -4  -4  -9   19.38    1.37
   4   4   9   20.98    1.14
  -5  -4  -9   11.24    0.79
   5   4   9   11.49    0.77
  -6  -4  -9    7.98    0.72
   6   4   9    8.73    0.70
  -3   5   9   10.52    0.65
  -2   5   9   13.52    0.78
  -1   5   9    6.36    0.49
   0  -5  -9    0.31    0.23
   0   5   9    0.48    0.16
  -1  -5  -9    2.93    0.41
   1   5   9    2.78    0.30
   1   5   9    2.64    0.28
  -2  -5  -9   25.26    1.34
   2   5   9   24.10    1.23
   2   5   9   23.44    1.28
  -3  -5  -9   10.39    0.71
   3   5   9   10.62    0.66
   3   5   9   11.20    0.66
  -4  -5  -9   20.51    1.18
   4   5   9   20.60    1.13
  -5  -5  -9    6.33    0.57
  -6  -5  -9   -0.18    0.26
   6   5   9   -0.01    0.24
  -3   6   9   14.11    0.83
  -2   6   9    7.20    0.53
  -1   6   9    0.37    0.16
   0  -6  -9    3.57    0.49
   0   6   9    3.19    0.35
  -1  -6  -9    8.60    0.66
   1   6   9    8.31    0.56
   1   6   9    8.59    0.47
  -2  -6  -9   22.60    1.26
   2   6   9   21.67    1.20
   2   6   9   23.09    1.14
  -3  -6  -9    3.00    0.38
   3   6   9    2.24    0.31
   3   6   9    2.89    0.32
  -4  -6  -9    0.21    0.20
   4   6   9    0.42    0.19
  -5  -6  -9    2.68    0.39
  -6  -6  -9   14.15    0.95
   6   6   9   13.22    0.87
   3  -7  -9    0.72    0.67
  -3   7   9    1.02    0.31
  -2   7   9    2.91    0.40
  -1   7   9   23.59    1.27
   0   7   9   21.11    1.15
  -1  -7  -9   12.34    0.89
   1   7   9   13.97    0.78
   1   7   9   13.90    0.80
  -2  -7  -9   10.71    0.77
   2   7   9   11.25    0.71
   2   7   9   11.01    0.61
  -3  -7  -9    0.40    0.21
   3   7   9    0.15    0.19
   3   7   9   -0.30    0.14
  -4  -7  -9    4.33    0.55
   4   7   9    4.86    0.62
   4   7   9    4.35    0.40
  -5  -7  -9    1.63    0.31
   5   7   9    1.79    0.32
  -6  -7  -9   11.92    0.85
   6   7   9   11.51    0.78
  -2   8   9   -0.26    0.24
  -1   8   9   12.31    0.80
   0   8   9    0.38    0.22
  -1  -8  -9    0.25    0.30
   1   8   9   -0.01    0.18
  -2  -8  -9    3.70    0.57
   2   8   9    5.20    0.45
   2   8   9    4.99    0.35
  -3  -8  -9   16.81    0.99
   3   8   9   14.39    0.93
   3   8   9   16.52    0.86
  -4  -8  -9   24.01    1.35
   4   8   9   24.60    1.26
  -5  -8  -9    5.95    0.59
   5   8   9    5.23    0.48
   0   9   9    0.16    0.22
   1   9   9    9.54    0.69
  -2  -9  -9    0.34    0.36
   2   9   9    1.13    0.25
  -3  -9  -9   13.00    0.95
   3   9   9   13.57    0.88
   3   9   9   14.58    0.77
   4   9   9    1.44    0.36
  -3   0  10    2.00    0.46
  -3   0  10    2.34    0.46
  -2   0  10    6.34    0.80
  -2   0  10    7.89    0.56
  -1   0  10    1.98    0.30
   0   0  10    3.56    0.49
   0   0  10    2.89    0.43
   1   0  10    7.56    0.64
   1   0  10    8.30    0.64
   2   0  10    8.50    0.69
   2   0  10    6.85    0.64
  -3   1  10   12.67    1.08
  -3   1  10   13.42    0.80
  -2   1  10    8.39    0.60
  -2   1  10    7.23    0.80
   1  -1 -10    1.23    0.38
  -1   1  10    1.33    0.24
   0   1  10    1.05    0.25
   0   1  10    1.78    0.31
   1   1  10    9.03    0.64
   1   1  10    8.38    0.64
   2   1  10    5.70    0.51
   2   1  10    5.31    0.54
   3   1  10    3.93    0.54
   3   1  10    2.80    0.38
  -4   2  10    1.33    0.48
  -3   2  10    3.90    0.42
  -3   2  10    2.37    0.52
  -2   2  10   25.91    1.58
  -2   2  10   24.68    1.33
   1  -2 -10   15.73    1.16
  -1   2  10   20.44    1.04
   0  -2 -10   54.49    2.87
   0   2  10   57.02    2.74
  -1  -2 -10   19.55    1.22
   1   2  10   20.79    1.12
   1   2  10   21.26    1.15
   2   2  10   15.65    0.90
   2   2  10   14.11    0.90
   3   2  10    0.44    0.31
   3   2  10   -0.25    0.18
   4   2  10   -0.32    0.21
   4   2  10   -0.19    0.29
  -3   3  10    5.62    0.48
  -2   3  10   21.69    1.17
   1  -3 -10    3.29    0.54
  -1   3  10    2.77    0.38
   0  -3 -10    1.37    0.32
   0   3  10    1.01    0.21
  -1  -3 -10    7.53    0.63
   1   3  10    6.21    0.59
   1   3  10    7.75    0.53
  -2  -3 -10   32.68    1.73
   2   3  10   29.98    1.64
   2   3  10   32.30    1.63
  -3  -3 -10   21.25    1.25
   3   3  10   21.05    1.18
   3   3  10   21.74    1.19
  -4  -3 -10   46.75    2.36
   4   3  10   44.83    2.30
   4   3  10   44.21    2.28
  -3   4  10    2.00    0.28
  -2   4  10    8.28    0.58
   1  -4 -10    0.58    0.30
  -1   4  10    0.55    0.20
   0   4  10    7.54    0.54
   1   4  10    2.28    0.31
   1   4  10    2.68    0.36
  -2  -4 -10   30.56    1.64
   2   4  10   28.94    1.53
   2   4  10   30.60    1.58
  -3  -4 -10    0.71    0.24
   3   4  10    0.52    0.19
   3   4  10    1.00    0.28
  -4  -4 -10    0.61    0.26
   4   4  10    0.55    0.20
  -3   5  10    5.07    0.49
  -2   5  10    3.29    0.40
  -1   5  10    2.04    0.29
   0  -5 -10   24.89    1.78
   0   5  10   28.96    1.45
  -1  -5 -10    2.58    0.44
   1   5  10    2.82    0.38
  -2  -5 -10    9.09    0.87
   2   5  10    9.59    0.65
   2   5  10    9.88    0.60
  -3  -5 -10   -0.22    0.21
   3   5  10    0.24    0.18
   3   5  10   -0.12    0.20
  -4  -5 -10    8.63    0.67
   4   5  10    7.67    0.59
   4   5  10    7.66    0.61
  -5  -5 -10   -0.34    0.24
   5   5  10    0.28    0.31
  -2   6  10    0.60    0.23
  -1   6  10   27.11    1.46
   0  -6 -10    0.50    0.32
   0   6  10    0.75    0.34
  -1  -6 -10    4.91    0.61
   1   6  10    5.79    0.49
   2   6  10    6.83    0.46
   2   6  10    5.32    0.62
  -3  -6 -10    1.22    0.29
   3   6  10    1.30    0.23
   3   6  10    1.12    0.23
  -4  -6 -10   24.68    1.40
   4   6  10   24.68    1.32
   4   6  10   24.42    1.34
  -5  -6 -10    0.30    0.28
   5   6  10    0.78    0.27
  -2   7  10    1.54    0.30
  -1   7  10   17.35    1.03
   0   7  10   -0.18    0.19
  -1  -7 -10    6.18    0.70
   1   7  10    5.85    0.52
  -2  -7 -10    2.13    0.42
   2   7  10    2.17    0.29
  -3  -7 -10   24.01    1.35
   3   7  10   23.06    1.21
   3   7  10   22.58    1.28
  -4  -7 -10    0.98    0.32
   4   7  10    1.20    0.26
   4   7  10    1.15    0.26
   0   8  10    1.15    0.33
  -1  -8 -10   59.03    3.23
   1   8  10   68.62    3.16
  -2  -8 -10    1.48    0.40
   2   8  10    1.74    0.31
  -3  -8 -10   12.53    0.96
   3   8  10   13.09    0.74
   3   8  10   12.86    0.84
  -4  -8 -10    0.82    0.34
   4   8  10   -0.32    0.34
   4   8  10    0.17    0.27
  -1   2  11    0.71    0.26
   0   2  11    7.94    0.65
   1   2  11    0.11    0.23
  -2   3  11    2.53    0.39
   1  -3 -11    6.17    0.75
  -1   3  11    7.20    0.59
   0  -3 -11   17.51    1.23
   0   3  11   19.71    1.10
  -1  -3 -11    3.76    0.59
   1   3  11    4.91    0.49
  -2  -3 -11    5.72    0.60
   2   3  11    4.41    0.56
   2   3  11    3.43    0.49
  -2   4  11    3.82    0.49
   1  -4 -11   23.11    1.56
  -1   4  11   27.78    1.87
  -1   4  11   26.80    1.40
   0  -4 -11    2.59    0.46
   0   4  11    2.76    0.37
  -1  -4 -11    1.87    0.39
   1   4  11    1.29    0.28
  -2  -4 -11    2.30    0.41
   2   4  11    2.55    0.34
  -3  -4 -11    1.59    0.33
   3   4  11    1.23    0.28
   3   4  11    1.30    0.32
  -1   5  11    0.05    0.24
   0  -5 -11    1.70    0.45
   0   5  11    2.26    0.35
  -1  -5 -11   19.28    1.28
   1   5  11   21.30    1.17
  -2  -5 -11    7.34    0.72
   2   5  11    8.13    0.61
  -3  -5 -11   19.83    1.21
   3   5  11   19.83    1.12
   3   5  11   18.09    1.10
  -1   6  11    3.79    0.51
   0  -6 -11    4.14    0.69
   0   6  11    5.26    0.54
  -1  -6 -11    9.23    1.42
   1   6  11    9.54    0.70
  -2  -6 -11   -0.04    0.35
   2   6  11    0.30    0.21
  -3  -6 -11    0.29    0.33
   3   6  11    0.44    0.22
  -1  -7 -11    6.39    0.83
   1   7  11    6.87    0.61
  -2  -7 -11    1.33    0.43
   2   7  11    1.36    0.29
   0   0   0    0.00    0.00
;
_shelx_hkl_checksum              20665
loop_
_space_group_symop_operation_xyz
'x, y, z'
'-x, -y, -z'
loop_
_atom_site_type_symbol
_atom_site_label
_atom_site_fract_x
_atom_site_fract_y
_atom_site_fract_z
_atom_site_U_iso_or_equiv
_atom_site_adp_type
_atom_site_calc_flag
_atom_site_refinement_flags_adp
_atom_site_refinement_flags_posn
_atom_site_occupancy
Cl Cl1 0.36044(6) 0.08891(4) 0.69337(4) 0.01657(10) Uani d . . 1
H H1 0.193(3) 0.646(3) 0.885(3) 0.038(6) Uiso d . . 1
O O1 0.1703(2) 0.73166(16) 0.77940(14) 0.0209(3) Uani d . . 1
C C1 0.2905(2) 0.34241(18) 0.61701(17) 0.0116(3) Uani d . . 1
Cl Cl2 0.18467(6) 0.79792(5) 0.14021(4) 0.01608(10) Uani d . . 1
O O2 0.2624(2) 0.38525(16) 1.04665(14) 0.0241(3) Uani d . . 1
C C2 0.2682(2) 0.45214(18) 0.43239(17) 0.0122(3) Uani d . . 1
H H2 0.290163 0.391521 0.350584 0.015 Uiso calc U R 1
C C3 0.2120(2) 0.65642(19) 0.37135(16) 0.0119(3) Uani d . . 1
C C4 0.1781(2) 0.75122(19) 0.48494(18) 0.0134(3) Uani d . . 1
H H4 0.140045 0.8904 0.437869 0.016 Uiso calc U R 1
C C6 0.2585(2) 0.42915(19) 0.74124(17) 0.0122(3) Uani d . . 1
C C5 0.2014(2) 0.63698(19) 0.67085(18) 0.0134(3) Uani d . . 1
C C7 0.2845(2) 0.3128(2) 0.93653(18) 0.0166(3) Uani d . . 1
H H7 0.320387 0.174009 0.980489 0.02 Uiso calc U R 1
loop_
_atom_site_aniso_label
_atom_site_aniso_U_11
_atom_site_aniso_U_22
_atom_site_aniso_U_33
_atom_site_aniso_U_12
_atom_site_aniso_U_13
_atom_site_aniso_U_23
Cl1 0.0248(2) 0.00891(15) 0.01429(16) -0.00424(13) -0.00070(13) -0.00337(12)
O1 0.0384(7) 0.0159(5) 0.0131(5) -0.0102(5) 0.0053(5) -0.0095(4)
C1 0.0135(7) 0.0087(5) 0.0121(6) -0.0031(5) -0.0010(5) -0.0036(5)
Cl2 0.0227(2) 0.01368(16) 0.00833(15) -0.00486(13) -0.00169(12) -0.00119(11)
O2 0.0385(7) 0.0244(6) 0.0114(5) -0.0113(5) 0.0024(5) -0.0080(4)
C2 0.0140(7) 0.0129(6) 0.0105(6) -0.0042(5) 0.0006(5) -0.0054(5)
C3 0.0133(7) 0.0115(5) 0.0081(5) -0.0039(5) -0.0005(5) -0.0011(4)
C4 0.0159(7) 0.0103(5) 0.0131(6) -0.0034(5) 0.0005(5) -0.0042(5)
C6 0.0150(7) 0.0119(6) 0.0094(5) -0.0043(5) -0.0002(5) -0.0037(5)
C5 0.0168(7) 0.0134(6) 0.0124(6) -0.0060(5) 0.0023(5) -0.0068(5)
C7 0.0221(8) 0.0158(6) 0.0110(6) -0.0073(6) 0.0001(5) -0.0034(5)
loop_
_atom_type_symbol
_atom_type_description
_atom_type_scat_dispersion_real
_atom_type_scat_dispersion_imag
_atom_type_scat_source
C C 0.0033 0.0016 'International Tables Vol C Tables 4.2.6.8 and 6.1.1.4'
H H 0.0000 0.0000 'International Tables Vol C Tables 4.2.6.8 and 6.1.1.4'
Cl Cl 0.1484 0.1585 'International Tables Vol C Tables 4.2.6.8 and 6.1.1.4'
O O 0.0106 0.0060 'International Tables Vol C Tables 4.2.6.8 and 6.1.1.4'
loop_
_geom_angle_atom_site_label_1
_geom_angle_atom_site_label_2
_geom_angle_atom_site_label_3
_geom_angle
C5 O1 H1 107.0(16)
C2 C1 C6 122.50(12)
C2 C1 Cl1 117.23(10)
C6 C1 Cl1 120.27(10)
C1 C2 C3 117.07(12)
C1 C2 H2 121.5
C3 C2 H2 121.5
C4 C3 C2 123.57(12)
C4 C3 Cl2 118.33(10)
C2 C3 Cl2 118.09(10)
C3 C4 C5 118.22(12)
C3 C4 H4 120.9
C5 C4 H4 120.9
C1 C6 C5 117.72(11)
C1 C6 C7 122.46(12)
C5 C6 C7 119.82(12)
O1 C5 C4 117.40(12)
O1 C5 C6 121.67(12)
C4 C5 C6 120.93(12)
O2 C7 C6 123.43(13)
O2 C7 H7 118.3
C6 C7 H7 118.3
loop_
_geom_bond_atom_site_label_1
_geom_bond_atom_site_label_2
_geom_bond_distance
Cl1 C1 1.7361(13)
O1 C5 1.3450(16)
O1 H1 0.83(2)
C1 C2 1.3827(17)
C1 C6 1.4121(17)
Cl2 C3 1.7359(13)
O2 C7 1.2282(17)
C2 C3 1.3994(17)
C2 H2 0.95
C3 C4 1.3812(18)
C4 C5 1.3966(18)
C4 H4 0.95
C6 C5 1.4185(18)
C6 C7 1.4629(18)
C7 H7 0.95
