#------------------------------------------------------------------------------
#$Date: 2016-09-30 04:32:10 +0300 (Fri, 30 Sep 2016) $
#$Revision: 186847 $
#$URL: file:///home/coder/svn-repositories/cod/cif/2/02/05/2020594.cif $
#------------------------------------------------------------------------------
#
# This file is available in the Crystallography Open Database (COD),
# http://www.crystallography.net/. The original data for this entry
# were provided by IUCr Journals, http://journals.iucr.org/.
#
# The file may be used within the scientific community so long as
# proper attribution is given to the journal article from which the
# data were obtained.
#
data_2020594
loop_
_publ_author_name
'Seidel, R\"udiger W.'
'Goddard, Richard'
'N\"othling, Nils'
'Lehmann, Christian W.'
_publ_section_title
;
 Acetic anhydride at 100K: the first crystal structure determination
;
_journal_coeditor_code           YF3110
_journal_issue                   10
_journal_name_full               'Acta Crystallographica Section C'
_journal_page_first              753
_journal_page_last               757
_journal_paper_doi               10.1107/S2053229616015047
_journal_volume                  72
_journal_year                    2016
_chemical_formula_iupac          'C4 H6 O3'
_chemical_formula_moiety         'C4 H6 O3'
_chemical_formula_sum            'C4 H6 O3'
_chemical_formula_weight         102.09
_chemical_name_common            'Acetic anhydride'
_chemical_name_systematic        'Ethanoic anhydride'
_space_group_crystal_system      orthorhombic
_space_group_IT_number           60
_space_group_name_Hall           '-P 2n 2ab'
_space_group_name_H-M_alt        'P b c n'
_symmetry_space_group_name_Hall  '-P 2n 2ab'
_symmetry_space_group_name_H-M   'P b c n'
_atom_sites_solution_hydrogens   geom
_atom_sites_solution_primary     direct
_atom_sites_solution_secondary   difmap
_cell_angle_alpha                90
_cell_angle_beta                 90
_cell_angle_gamma                90
_cell_formula_units_Z            4
_cell_length_a                   8.0707(14)
_cell_length_b                   7.8733(13)
_cell_length_c                   7.9305(13)
_cell_measurement_reflns_used    1147
_cell_measurement_temperature    100(2)
_cell_measurement_theta_max      41.0855
_cell_measurement_theta_min      5.4813
_cell_volume                     503.93(15)
_computing_cell_refinement
;
SAINT (Bruker, 2013)
;
_computing_data_collection
;
APEX2 (Bruker, 2013)
;
_computing_data_reduction
;
SAINT (Bruker, 2013)
;
_computing_molecular_graphics
;
DIAMOND (Brandenburg, 2014)
;
_computing_publication_material
;
enCIFer (Allen <i>et al.</i>,  2004)
;
_computing_structure_refinement
;
SHELXL2014 (Sheldrick, 2015)
;
_computing_structure_solution
;
SHELXS2013 (Sheldrick, 2008)
;
_diffrn_ambient_temperature      100(2)
_diffrn_detector_area_resol_mean 16.67
_diffrn_measured_fraction_theta_full 0.983
_diffrn_measured_fraction_theta_max 0.983
_diffrn_measurement_device_type  'Bruker AXS X8 Proteum'
_diffrn_measurement_method       '\f- and \w-scans'
_diffrn_radiation_monochromator  'MONTEL graded multilayer optic'
_diffrn_radiation_type           CuK\a
_diffrn_radiation_wavelength     1.54178
_diffrn_reflns_av_R_equivalents  0.0506
_diffrn_reflns_limit_h_max       9
_diffrn_reflns_limit_h_min       -9
_diffrn_reflns_limit_k_max       9
_diffrn_reflns_limit_k_min       -9
_diffrn_reflns_limit_l_max       8
_diffrn_reflns_limit_l_min       -7
_diffrn_reflns_number            19642
_diffrn_reflns_theta_full        67.371
_diffrn_reflns_theta_max         67.371
_diffrn_reflns_theta_min         7.862
_exptl_absorpt_coefficient_mu    1.012
_exptl_absorpt_correction_T_max  0.66846
_exptl_absorpt_correction_T_min  0.47191
_exptl_absorpt_correction_type   gaussian
_exptl_absorpt_process_details
;
(SADABS; Bruker, 2012)
;
_exptl_crystal_colour            colourless
_exptl_crystal_density_diffrn    1.346
_exptl_crystal_description       cylinder
_exptl_crystal_F_000             216
_exptl_crystal_size_max          1.317
_exptl_crystal_size_mid          0.503
_exptl_crystal_size_min          0.500
_refine_diff_density_max         0.160
_refine_diff_density_min         -0.143
_refine_ls_extinction_coef       0.012(2)
_refine_ls_extinction_expression Fc^*^=kFc[1+0.001xFc^2^\l^3^/sin(2\q)]^-1/4^
_refine_ls_extinction_method
;
SHELXL2014 (Sheldrick, 2015)
;
_refine_ls_goodness_of_fit_ref   1.093
_refine_ls_hydrogen_treatment    constr
_refine_ls_matrix_type           full
_refine_ls_number_parameters     35
_refine_ls_number_reflns         452
_refine_ls_number_restraints     0
_refine_ls_restrained_S_all      1.093
_refine_ls_R_factor_all          0.0251
_refine_ls_R_factor_gt           0.0248
_refine_ls_shift/su_max          0.000
_refine_ls_shift/su_mean         0.000
_refine_ls_structure_factor_coef Fsqd
_refine_ls_weighting_details
'w=1/[\s^2^(Fo^2^)+(0.0276P)^2^+0.1605P] where P=(Fo^2^+2Fc^2^)/3'
_refine_ls_weighting_scheme      calc
_refine_ls_wR_factor_gt          0.0633
_refine_ls_wR_factor_ref         0.0635
_reflns_number_gt                445
_reflns_number_total             452
_reflns_threshold_expression     'I > 2\s(I)'
_cod_data_source_file            yf3110sup1.cif
_cod_data_source_block           I
_cod_database_code               2020594
_shelx_space_group_comment
;
The symmetry employed for this shelxl refinement is uniquely defined
by the following loop, which should always be used as a source of
symmetry information in preference to the above space-group names.
They are only intended as comments.
;
_shelx_estimated_absorpt_t_min   0.349
_shelx_estimated_absorpt_t_max   0.631
_shelx_hkl_file
;
   0  -1   0    3.40    0.60
   0  -2   0 4582.24  248.88
   0   2   0 4872.11  249.78
   0   2   0 4672.53  248.88
   0  -3   0    0.90    0.90
   0   3   0    0.10    0.40
   0  -3   0   -0.30    0.90
   0   3   0    0.10    0.40
   0  -3   0   -0.10    0.60
   0   4   0 4136.39  218.18
   0   4   0 4111.49  215.58
   0   4   0 4136.89  215.78
   0  -4   0 4478.95  215.98
   0  -4   0 3925.31  215.98
   0  -4   0 3838.12  216.38
   0  -5   0    0.00    1.20
   0  -5   0    0.20    1.10
   0   5   0   -0.30    0.60
   0   5   0    0.10    0.40
   0  -5   0   -0.40    1.00
   0  -6   0   46.90    4.20
   0   6   0   46.90    3.80
   0   6   0   58.09    3.70
   0  -6   0   61.49    5.60
   0  -6   0   49.70    5.50
   0  -6   0   43.60    5.60
   0  -6   0   47.20    4.90
   0  -6   0   41.00    9.60
   0   6   0   54.29    3.70
   0   6   0   53.29    3.80
   0  -6   0   58.59    5.00
   0  -6   0   45.10    7.20
   0  -7   0   -0.60    2.10
   0   7   0    0.10    1.20
   0   7   0   -0.50    0.60
   0   7   0    1.00    0.80
   0  -7   0    1.90    2.10
   0  -7   0    3.50    2.20
   0  -7   0   -0.40    2.00
   0  -7   0    1.10    4.40
   0  -7   0    0.40    3.30
   0  -7   0    4.70    2.50
   0   7   0    0.40    0.90
   0   8   0  180.08   10.90
   0  -8   0  190.38   12.90
   0  -8   0  203.18   12.90
   0  -8   0  175.48   11.60
   0  -8   0  197.28   11.70
   0  -8   0  188.78   11.90
   0   8   0  178.68   10.60
   0  -8   0  176.08   12.70
   0  -8   0  185.08   15.10
   0   8   0  188.88   10.80
   0   8   0  187.98   12.10
   0  -9   0    0.00    1.00
   0   9   0   -0.10    0.80
   0   9   0    0.70    0.90
   0  -9   0   -0.20    1.10
   0  -9   0    0.70    1.70
   0   9   0    0.10    0.70
   0  -9   0    2.00    1.40
   0  -9   0   -0.30    1.30
   0   0   1    1.60    0.20
   0  -1   1    0.60    0.20
   0  -1   1    0.80    0.40
   0   1   1    1.20    0.40
   0   1   1    0.00    0.30
   0  -1   1    0.90    0.50
   0  -1   1    0.10    0.30
   0   1   1    0.40    0.20
   0   1   1    0.20    0.30
   0  -2   1 3264.67  178.88
   0   2  -1 3135.29  178.38
   0   2  -1 3436.36  179.08
   0   2   1 3514.35  180.88
   0   2   1 3609.54  180.08
   0   3  -1    0.80    0.50
   0  -3   1    2.70    1.10
   0  -3   1    0.40    0.90
   0  -3   1   -0.20    0.70
   0   3   1    0.20    0.50
   0   3   1    0.40    0.30
   0  -3   1    0.90    0.70
   0  -3  -1    0.50    0.70
   0   3   1    0.10    0.30
   0  -3   1   -0.50    0.70
   0   3   1    0.30    0.40
   0  -3   1    1.10    0.80
   0   3   1    0.30    0.40
   0  -3   1   -0.60    0.70
   0  -3  -1    0.00    0.80
   0   4   1  562.04   29.80
   0   4   1  557.64   29.50
   0   4  -1  549.45   29.60
   0   4  -1  576.34   30.00
   0  -4   1  475.05   31.70
   0  -4  -1  494.05   30.40
   0  -4  -1  498.65   30.90
   0  -4   1  583.24   30.60
   0   4   1  570.14   30.30
   0   4   1  609.94   29.70
   0  -4   1  595.34   31.40
   0  -4   1  522.35   30.70
   0  -4   1  580.94   30.60
   0  -4  -1  543.25   30.30
   0   4   1  567.04   30.30
   0  -5   1   -0.20    1.20
   0  -5   1    0.60    1.30
   0   5   1    3.20    0.90
   0   5   1    0.70    0.80
   0   5   1    1.40    0.70
   0  -5  -1    0.20    1.30
   0  -5   1    0.80    1.30
   0   5  -1    0.70    0.70
   0   6   1  571.64   29.10
   0   6   1  494.95   28.00
   0   6   1  541.85   27.80
   0   6  -1  539.55   27.50
   0   6   1  549.74   27.70
   0  -6   1  465.35   32.20
   0  -6   1  555.24   29.60
   0   6   1  554.44   27.60
   0  -6   1  565.54   29.90
   0   6   1  513.05   27.30
   0  -6  -1  482.15   28.70
   0  -6   1  458.05   27.90
   0  -6  -1  432.66   29.40
   0  -6   1  513.35   28.70
   0   6   1  539.85   27.30
   0   6  -1  543.65   27.70
   0  -6  -1  446.26   32.00
   0  -6   1  498.35   28.80
   0  -6   1  475.75   34.30
   0   6   1  513.35   28.00
   0  -6  -1  477.45   28.90
   0  -6  -1  558.54   30.30
   0  -6   1  477.75   29.70
   0  -6  -1  451.35   29.50
   0  -6   1  477.95   29.60
   0  -6   1  494.65   29.50
   0  -7   1   -0.40    2.10
   0   7   1   -0.50    0.60
   0  -7   1   -2.10    4.70
   0   7  -1   -0.70    0.90
   0  -7   1   -1.20    2.90
   0  -7   1   -0.60    1.80
   0  -7  -1    0.00    3.10
   0   7  -1   -0.90    0.70
   0  -7  -1    2.10    2.00
   0  -7  -1    0.20    1.30
   0  -7  -1    3.30    2.40
   0  -7   1   -0.50    1.50
   0   7   1    3.90    1.20
   0   7   1    0.00    0.70
   0  -7  -1    1.00    2.00
   0   7   1    0.70    0.90
   0  -7  -1   -1.10    2.30
   0   7   1    3.70    1.80
   0  -7  -1    0.90    2.10
   0  -7   1    0.00    1.80
   0  -7   1   -2.00    1.80
   0  -7   1    2.60    2.50
   0  -8  -1  462.95   25.30
   0   8   1  427.86   24.10
   0  -8   1  434.26   30.20
   0  -8  -1  412.06   28.20
   0   8   1  419.06   23.90
   0  -8   1  454.55   25.60
   0  -8  -1  452.65   24.50
   0   8  -1  412.86   23.90
   0  -8   1  441.26   24.50
   0   8   1  415.26   25.30
   0   8   1  433.86   23.80
   0  -8   1  454.95   26.10
   0  -8   1  457.85   28.70
   0   8   1  410.46   23.50
   0  -8  -1  418.56   25.70
   0  -8   1  462.35   24.90
   0   8  -1  403.36   25.00
   0   8   1  449.76   24.00
   0   8  -1  415.96   23.80
   0  -8   1  470.65   26.00
   0  -8  -1  464.65   25.00
   0  -8  -1  470.35   26.30
   0  -8  -1  440.26   26.00
   0  -8   1  445.46   25.00
   0  -9  -1   -0.60    1.20
   0   9   1   -0.30    0.60
   0  -9   1   -1.10    0.90
   0  -9   1   -0.10    1.60
   0   9   1   -0.30    0.80
   0   9   1   -0.20    0.60
   0   9  -1    0.50    0.70
   0  -9   1   -1.00    1.30
   0  -9   1    1.70    1.30
   0  -9  -1    0.30    1.60
   0  -9  -1   -0.10    1.10
   0  -9  -1   -0.20    1.10
   0   9   1   -0.30    0.80
   0   9  -1    0.00    0.70
   0  -9   1   -0.50    1.30
   0   9   1   -0.10    0.80
   0   0   2    3.00    0.40
   0   0   2    3.60    0.50
   0   1   2    4.70    0.60
   0  -1   2    8.20    1.50
   0   2   2  763.52   41.60
   0   2   2  814.12   41.80
   0  -2   2  752.22   42.50
   0  -2   2  828.52   42.80
   0  -2   2  805.72   41.60
   0   2   2  797.52   41.70
   0   2   2  823.42   42.20
   0   2   2  807.92   41.90
   0   2   2  837.62   42.40
   0   2   2  865.41   41.90
   0  -2   2  678.93   41.90
   0  -2   2  699.63   42.40
   0  -3  -2    0.70    1.00
   0  -3   2    0.10    0.90
   0  -3   2    1.00    0.70
   0  -3   2    0.00    0.80
   0  -3   2    0.20    0.80
   0  -3   2    0.00    0.70
   0  -3   2    0.60    0.90
   0   3  -2    1.70    0.60
   0  -3  -2    0.50    0.60
   0   3   2    0.30    0.70
   0   3   2    2.10    0.70
   0   4   2  131.79    8.00
   0  -4  -2  114.69    8.90
   0  -4   2  127.59    8.70
   0  -4   2  108.39    9.30
   0   4   2  128.79    7.40
   0  -4   2  131.79    8.60
   0  -4   2  144.19    9.50
   0   4   2  129.09    7.40
   0   4   2  133.99    7.30
   0   4   2  130.09    7.70
   0   4   2  133.69    8.40
   0   4   2  127.59    7.60
   0   4  -2  119.39    7.60
   0  -5   2    0.40    1.80
   0  -5   2    0.50    1.50
   0   5   2    0.50    0.60
   0   5   2    0.00    0.90
   0  -5   2    1.00    1.50
   0   5   2    0.40    0.60
   0   5   2    0.10    0.60
   0   5   2    0.20    0.80
   0   5   2    1.00    0.70
   0  -5   2    0.60    1.30
   0  -5   2   -0.30    1.30
   0  -5   2    1.20    1.40
   0  -5  -2    0.20    1.50
   0  -6   2   22.30    3.60
   0  -6   2   22.50    3.10
   0   6  -2   20.50    2.20
   0   6   2   21.70    2.60
   0  -6  -2   16.30    4.90
   0  -6   2   23.20    3.30
   0  -6   2   23.20    3.90
   0  -6   2   18.90    3.90
   0  -6   2   23.80    3.90
   0   6   2   20.90    2.10
   0  -6  -2   19.50    3.40
   0  -6   2   21.50    7.50
   0  -6   2   23.20    3.70
   0  -6   2   25.70    4.40
   0   6   2   21.30    1.90
   0  -6  -2   13.60    3.30
   0  -6   2   22.50    3.00
   0   6   2   22.00    2.30
   0   6   2   22.90    2.10
   0  -6  -2   19.70    4.00
   0   6   2   22.00    2.30
   0  -6   2   25.00    4.70
   0  -6  -2   16.50    3.00
   0  -6   2   26.60    4.30
   0  -6   2   19.60    5.20
   0   6   2   21.50    2.00
   0   6   2   23.30    3.20
   0   6   2   22.90    1.90
   0   6   2   22.70    2.60
   0   6   2   20.30    2.60
   0   6   2   31.10    2.70
   0   6  -2   21.30    2.10
   0  -6   2   18.60    4.00
   0   7  -2   -0.30    0.80
   0  -7  -2    1.20    2.40
   0  -7  -2    0.70    1.80
   0  -7   2    1.70    1.40
   0  -7  -2    0.60    2.00
   0  -7   2   -0.50    2.30
   0   7   2    0.30    0.70
   0  -7   2   -2.90    4.20
   0  -7   2   -1.40    1.70
   0   7   2    6.20    2.20
   0  -7   2    1.10    1.80
   0   7   2    4.80    1.40
   0   7   2    0.20    0.70
   0  -7   2   -1.20    1.40
   0   7   2    1.20    0.70
   0   7   2    3.40    1.20
   0  -7   2    3.90    2.00
   0   7   2    0.80    0.90
   0  -7   2    0.20    1.90
   0  -7  -2    0.50    3.40
   0   7  -2    0.50    0.80
   0   7   2    0.60    0.90
   0  -7   2   -1.80    2.10
   0   7   2    0.30    0.90
   0  -7  -2    0.80    1.60
   0  -7  -2   -0.10    1.90
   0  -7   2    1.00    1.60
   0  -7   2   -0.30    2.50
   0   8   2    0.70    0.70
   0  -8  -2   -0.30    1.90
   0  -8   2    2.30    1.70
   0   8   2   -0.10    0.80
   0  -8  -2    1.40    1.80
   0   8   2    0.40    0.80
   0   8   2    1.30    1.00
   0  -8   2   -0.20    2.40
   0  -8  -2   -0.50    1.20
   0  -8   2    0.80    1.80
   0  -8  -2    0.10    1.80
   0   8  -2    0.90    0.80
   0   8   2    0.30    1.10
   0  -8   2    0.10    1.80
   0   8   2    1.70    1.40
   0  -8   2   -0.40    1.30
   0   8   2    2.30    1.20
   0  -8  -2    1.20    2.80
   0  -8   2   -0.60    3.70
   0  -8  -2    0.50    1.60
   0   8   2    0.70    0.90
   0  -8   2   -0.20    1.50
   0   9   2    0.60    0.80
   0   9   2    0.70    0.70
   0  -9  -2    0.80    1.00
   0  -9   2   -0.50    1.10
   0   9   2    1.10    0.70
   0  -9   2    0.30    1.10
   0  -9  -2    1.30    1.10
   0   9   2    0.10    0.60
   0   9   2    0.50    1.10
   0  -9   2    0.00    1.50
   0   9   2    0.00    0.80
   0  -9   2    4.20    1.50
   0   9   2    0.20    0.60
   0  -9  -2    0.90    1.20
   0   0   3    0.10    0.40
   0   0   3   -0.10    0.60
   0   0   3    0.20    0.60
   0   1   3    0.30    0.50
   0  -1   3    1.40    0.30
   0   1   3    0.70    0.30
   0   1   3    0.60    0.40
   0  -1   3    0.10    0.70
   0  -1   3    1.80    1.00
   0  -1   3    0.00    0.60
   0   1   3    1.30    0.40
   0  -1   3    2.00    0.50
   0  -1   3    0.30    0.60
   0  -1   3    0.10    0.70
   0  -1   3    1.00    1.00
   0   2   3 2605.04  131.19
   0  -2   3 2204.98  130.69
   0   2   3 2388.76  129.39
   0  -2   3 2285.77  130.09
   0   2   3 2635.24  130.49
   0  -2   3 2315.47  130.69
   0  -2   3 2516.75  131.09
   0   2   3 2419.36  130.09
   0  -2   3 2450.25  130.79
   0  -2   3 2459.15  129.99
   0   2   3 2716.43  132.49
   0   2   3 2461.45  129.59
   0   2   3 2541.45  130.09
   0  -2   3 2547.84  129.79
   0   2   3 2465.75  130.49
   0  -2   3 2581.34  130.99
   0  -3   3    3.20    1.00
   0  -3   3    0.50    0.70
   0  -3   3   -0.30    0.90
   0  -3   3    2.10    1.30
   0  -3   3    0.40    1.00
   0  -3   3    0.20    1.10
   0   3   3    0.80    0.50
   0  -3   3   -0.10    0.90
   0   3   3    0.10    0.60
   0   3   3    2.10    0.70
   0   3   3    0.50    0.60
   0   3   3    1.40    0.60
   0   3   3    0.10    0.30
   0   3   3    0.60    0.40
   0  -4  -3  753.52   45.20
   0  -4   3  801.52   44.90
   0   4   3  828.22   43.20
   0  -4   3  896.91   45.90
   0   4   3  797.12   43.70
   0   4   3  810.72   43.80
   0  -4   3  831.32   45.00
   0  -4   3  768.42   45.00
   0   4   3  790.22   43.90
   0   4   3  816.12   43.40
   0   4   3  778.12   43.10
   0   4   3  891.21   45.00
   0  -5   3    0.00    1.30
   0  -5   3    0.80    1.40
   0  -5   3    0.90    1.50
   0   5   3    0.50    0.90
   0   5   3    0.20    0.60
   0   5   3    0.10    0.60
   0   5   3    1.60    0.80
   0  -5   3    0.80    3.00
   0  -5   3   -0.70    1.60
   0   5   3    0.90    1.20
   0  -5   3    3.30    2.30
   0   5   3    0.20    0.50
   0  -5   3    0.30    1.50
   0  -5   3    5.30    3.10
   0   5   3    3.70    0.90
   0   5   3    0.20    0.70
   0  -5   3    1.00    1.50
   0  -5   3    3.60    3.80
   0   5   3    1.30    1.40
   0  -5   3    0.70    2.20
   0  -5   3    2.60    1.90
   0  -5   3    1.70    1.90
   0   5   3    0.90    0.70
   0   5   3   -0.30    0.50
   0  -5   3    4.10    1.90
   0  -5   3    0.60    1.60
   0   5   3    3.70    0.80
   0  -5   3    2.30    3.10
   0  -5   3   -0.70    1.40
   0   5   3    0.60    0.80
   0   5   3    0.50    0.70
   0   5  -3   -0.10    0.60
   0   5   3    0.00    0.60
   0  -5   3    2.70    3.10
   0  -5   3    0.40    1.10
   0  -5   3    1.10    1.60
   0   5   3    0.10    0.60
   0  -5   3    2.40    2.00
   0   5   3    0.10    0.70
   0  -5   3    9.30    4.60
   0   5   3    0.20    0.70
   0   5   3    0.50    0.70
   0   5   3    0.60    0.90
   0  -5   3    0.50    1.70
   0  -5   3    1.10    1.40
   0  -5   3   -0.70    1.50
   0   5   3    2.40    1.20
   0  -6   3 1039.30   53.79
   0   6   3  996.20   51.79
   0  -6  -3  925.61   54.19
   0   6   3  961.70   51.09
   0   6   3  861.81   52.29
   0  -6   3  889.61   51.69
   0   6   3  958.90   51.29
   0   6   3 1008.10   51.19
   0  -6   3  971.70   53.59
   0  -6   3  971.50   53.19
   0  -6   3 1087.29   56.89
   0  -6   3  997.60   54.19
   0  -6   3 1046.50   52.79
   0   6   3  943.41   51.39
   0  -6   3  882.61   56.59
   0   6   3  971.10   51.59
   0   6   3 1015.10   51.69
   0   6   3  956.30   50.89
   0   6   3 1031.70   52.29
   0  -6   3  919.41   52.49
   0  -6   3 1037.80   52.19
   0  -6   3 1001.60   53.29
   0   6  -3  908.61   50.99
   0  -6   3 1048.10   57.89
   0   6   3  950.80   50.99
   0   6   3  892.11   51.29
   0  -6   3  857.11   58.29
   0  -6   3  891.61   52.39
   0   6   3 1001.30   51.39
   0  -6   3  872.31   52.59
   0  -6   3  964.30   54.19
   0  -6   3 1082.79   53.99
   0   6   3  921.21   50.89
   0  -6  -3  815.02   52.59
   0   6   3  945.61   51.59
   0   6   3  949.80   50.99
   0   6   3 1027.50   53.49
   0  -6   3  948.41   53.79
   0  -7  -3    0.00    2.20
   0   7   3    0.60    1.90
   0   7   3    1.20    1.20
   0   7   3    0.20    1.20
   0   7   3    0.70    1.00
   0  -7   3    0.80    2.90
   0  -7   3    3.50    1.70
   0  -7  -3    1.10    2.10
   0  -7  -3    0.10    2.00
   0   7   3    0.20    0.70
   0   7   3    0.30    0.70
   0   7   3    0.90    0.90
   0   7  -3   -0.10    0.80
   0  -7   3   -0.20    2.00
   0   7   3    1.10    0.90
   0  -7   3    0.20    3.90
   0  -7   3    0.20    1.20
   0   7   3    0.70    0.90
   0   7   3   -0.20    0.80
   0  -7  -3    1.20    2.20
   0   7   3   -0.30    0.90
   0   7   3    0.70    0.70
   0   7   3    5.30    1.30
   0  -7   3    0.10    1.50
   0  -7   3    0.70    1.80
   0  -7   3   -0.40    2.20
   0  -7   3    0.40    1.90
   0   7   3    0.20    1.00
   0   8   3   47.70    3.70
   0   8   3   47.90    3.80
   0  -8   3   51.09    8.90
   0  -8   3   51.59    5.20
   0  -8  -3   51.69    4.90
   0  -8  -3   53.19    4.00
   0  -8   3   49.00    3.80
   0  -8   3   51.69    4.50
   0   8   3   49.60    3.50
   0  -8  -3   50.19    4.30
   0   8   3   49.10    3.90
   0  -8  -3   53.19    5.00
   0   8   3   48.70    3.50
   0   8   3   38.30    5.00
   0  -8  -3   47.90    5.50
   0   8   3   49.99    3.40
   0  -8   3   52.39    4.50
   0   8   3   47.20    3.50
   0  -8   3   49.50    6.60
   0  -8  -3   52.89    4.00
   0  -8   3   49.30    4.90
   0   8   3   48.90    4.00
   0   0   4  816.22   46.20
   0   0   4  728.53   45.90
   0   0   4  868.91   45.20
   0   0   4  922.51   46.20
   0   0   4  916.21   45.90
   0   0   4  942.01   45.50
   0   0   4  859.91   46.40
   0   0   4  785.62   45.00
   0   0   4  849.81   45.20
   0   1   4    1.30    0.80
   0   1   4    2.00    0.50
   0  -1   4    3.20    1.40
   0  -1   4    1.20    0.40
   0  -1   4    3.30    1.30
   0  -1   4    1.10    0.90
   0   1   4    0.70    0.50
   0  -1   4    2.70    0.80
   0  -1   4    0.70    1.00
   0   1   4    2.60    1.00
   0  -1   4    0.00    0.70
   0   1   4    1.70    0.80
   0   1   4    0.40    0.40
   0  -2   4 2826.52  147.79
   0   2   4 3035.00  147.49
   0  -2   4 2872.01  148.09
   0   2   4 2932.51  146.79
   0  -2   4 2552.04  147.59
   0  -2   4 2894.21  146.19
   0   2   4 2826.82  146.19
   0   2   4 2844.82  148.59
   0  -2   4 2795.52  147.69
   0   2   4 2396.66  146.89
   0  -2   4 2634.94  146.69
   0   2   4 2857.01  146.49
   0  -3   4    0.00    0.70
   0   3   4    0.10    0.50
   0  -3   4   -0.50    1.20
   0  -3   4    1.00    1.30
   0   3   4    0.50    0.40
   0  -3   4    0.80    1.50
   0   3   4    0.20    0.40
   0   3   4    0.50    0.50
   0   3   4    0.30    0.80
   0  -3   4    0.20    1.10
   0  -3   4    0.00    1.20
   0   3   4    0.70    0.60
   0   4   4  325.07   18.10
   0   4   4  321.77   18.20
   0   4   4  328.87   18.30
   0   4   4  343.07   18.20
   0  -4   4  334.17   20.70
   0   4   4  324.37   18.40
   0   4   4  332.97   19.10
   0  -4   4  332.67   20.30
   0   4   4  340.27   18.50
   0   4   4  328.77   18.10
   0  -4   4  316.57   18.60
   0  -4   4  320.07   23.60
   0   4   4  316.97   18.10
   0   4   4  341.37   18.60
   0   4   4  325.27   18.10
   0  -4   4  336.57   19.60
   0  -4   4  338.27   19.70
   0  -4   4  322.57   20.20
   0  -4   4  371.86   20.40
   0  -4   4  278.27   18.70
   0  -4   4  372.76   20.70
   0  -4   4  326.87   24.10
   0  -4   4  316.67   20.40
   0  -4   4  294.67   24.60
   0   4   4  342.57   18.70
   0   4   4  314.57   19.00
   0  -4   4  333.77   20.90
   0   4   4  348.27   18.80
   0  -4  -4  320.97   20.80
   0  -4   4  316.27   20.40
   0   4   4  368.76   20.70
   0  -4   4  337.47   21.00
   0   4   4  368.06   19.70
   0  -4   4  334.27   20.20
   0   4   4  331.97   18.20
   0   4   4  375.66   19.10
   0   4   4  361.06   19.20
   0  -4   4  324.87   20.90
   0  -4   4  296.67   19.60
   0   4   4  341.57   18.60
   0  -4   4  341.07   24.00
   0  -4   4  335.47   19.30
   0   4   4  340.07   18.30
   0   4   4  318.47   18.00
   0  -4   4  343.07   22.40
   0  -4   4  314.37   19.70
   0  -4   4  335.07   19.10
   0   4   4  349.07   18.80
   0  -5   4    3.40    1.70
   0  -5   4    0.00    1.60
   0  -5   4    0.70    1.60
   0  -5   4   -0.50    2.10
   0  -5   4   -0.40    1.50
   0  -5   4    0.60    2.00
   0   5   4    0.00    0.60
   0   5   4    0.70    0.70
   0   5   4    1.70    0.80
   0  -5   4   -1.70    3.10
   0   5   4    0.70    0.70
   0  -5   4    1.40    1.60
   0  -5   4   -0.50    1.30
   0   5   4   -0.70    2.50
   0   5   4   -0.50    0.90
   0   5   4   -0.60    1.20
   0   5   4    0.30    1.20
   0  -5   4    1.30    1.80
   0   5   4   -0.20    0.70
   0   5   4    0.10    0.80
   0  -5   4    1.00    1.90
   0  -5   4    0.20    1.90
   0   5   4    0.40    0.60
   0  -5   4    4.30    3.40
   0   5   4    0.30    1.30
   0  -5   4    2.80    1.80
   0  -5   4    0.00    3.30
   0  -5   4   -0.40    2.70
   0   5   4    0.20    0.70
   0  -5   4   -0.50    1.80
   0   5   4   -0.10    0.80
   0  -5   4   -1.30    2.70
   0   5   4    0.10    0.70
   0  -5   4    0.00    1.70
   0   5   4    0.90    1.20
   0   5   4    0.90    1.20
   0   5   4   -0.40    0.60
   0   5   4    0.80    0.80
   0   5   4    0.10    0.70
   0  -5   4    1.70    1.20
   0  -5   4    0.50    1.80
   0   5   4    0.80    0.80
   0   5   4   -0.30    1.20
   0  -5  -4    1.00    2.10
   0  -5   4    1.40    3.70
   0  -5   4   -0.10    2.10
   0  -5   4    0.30    1.30
   0  -5   4    3.60    1.60
   0  -5   4    0.70    2.20
   0   6   4  841.12   45.10
   0   6   4  950.40   46.40
   0   6   4  877.21   45.40
   0  -6   4  820.72   53.29
   0  -6   4  837.62   47.00
   0  -6   4  859.71   48.40
   0  -6   4  876.41   46.90
   0  -6   4  876.31   51.89
   0  -6  -4  806.62   48.60
   0  -6   4  804.52   47.00
   0   6   4  879.31   45.70
   0  -6   4  888.81   48.00
   0   6   4  832.62   45.20
   0   6   4  825.52   45.80
   0   6   4  813.72   45.70
   0  -6   4  920.91   50.69
   0  -6   4  890.21   46.40
   0  -6   4  864.81   47.70
   0   6   4  722.23   45.80
   0  -6  -4  728.03   46.90
   0   6   4  821.92   45.50
   0   6   4  925.21   46.40
   0  -6   4  915.71   48.40
   0  -6   4  823.12   48.70
   0  -6   4  809.52   46.00
   0   6   4  872.71   45.90
   0  -6   4  872.61   46.90
   0   6   4  834.42   45.20
   0  -6   4  843.32   51.99
   0  -6   4  916.01   48.20
   0   6   4  841.32   45.50
   0  -6   4  852.71   47.80
   0   6   4  922.31   47.00
   0   6   4  853.91   46.00
   0  -6   4  759.72   46.50
   0   6   4  799.32   45.10
   0   6   4  871.81   48.30
   0  -6   4  926.41   47.50
   0   6   4  840.72   45.30
   0   6   4  835.52   45.30
   0   6   4  804.52   45.40
   0   6   4  868.41   45.30
   0   7   4   -0.30    0.80
   0  -7   4    0.70    2.10
   0  -7  -4    0.00    1.80
   0  -7   4    0.00    3.30
   0   7   4    0.30    0.80
   0   7   4    0.80    1.00
   0  -7  -4    0.50    2.20
   0   7   4    0.10    0.70
   0  -7   4    0.00    1.20
   0   7   4    0.20    0.70
   0  -7   4    0.10    1.20
   0   7   4   -0.30    0.90
   0  -7   4    0.00    1.80
   0  -7   4    0.00    1.60
   0   7   4    0.70    2.10
   0  -7   4    0.40    1.50
   0   7   4    0.50    0.80
   0   7   4    1.00    1.10
   0  -7   4   -0.10    2.60
   0   7   4   -0.20    0.60
   0  -7   4   -1.00    2.00
   0   7   4    0.10    0.70
   0  -7   4    0.10    1.70
   0  -7  -4    0.00    2.00
   0   7   4    0.50    1.20
   0   7   4   -0.60    0.70
   0  -7   4    0.50    1.70
   0   7   4    0.60    0.90
   0  -7   4    1.90    2.60
   0   7   4    0.80    1.10
   0  -7   4    0.40    1.90
   0  -7  -4    0.10    1.90
   0   7   4   -0.70    0.80
   0  -8  -4  696.33   34.80
   0  -8   4  667.03   35.40
   0  -8  -4  643.64   34.20
   0   8   4  575.14   33.90
   0   8   4  622.24   34.30
   0  -8  -4  623.54   35.40
   0   8   4  610.44   34.20
   0   8   4  608.74   34.00
   0  -8  -4  664.53   34.40
   0   8   4  601.14   34.10
   0  -8   4  634.74   34.80
   0  -8   4  631.44   36.90
   0  -8  -4  685.63   35.00
   0   8   4  595.94   33.80
   0  -8   4  685.83   38.90
   0  -8   4  662.63   34.70
   0   8   4  590.44   34.40
   0  -8   4  675.53   34.90
   0   8   4  590.14   33.90
   0  -8   4  614.94   34.20
   0  -8  -4  694.43   35.20
   0   0   5    0.20    0.40
   0   0   5    0.40    0.50
   0   0   5    0.20    0.80
   0   0   5    0.20    1.00
   0   0   5    0.20    1.00
   0   0   5    0.50    1.10
   0   0   5    0.10    0.80
   0   1   5   -0.10    0.70
   0  -1   5   -0.20    0.90
   0  -1   5   -0.20    0.80
   0  -1   5    0.20    0.60
   0   1   5   -0.30    0.40
   0  -1   5   -0.30    1.10
   0  -1   5    2.70    1.70
   0   1   5    0.10    0.40
   0   1   5    0.00    0.50
   0   1   5    1.70    1.20
   0   1   5    0.10    0.30
   0  -2   5  649.64   38.30
   0  -2   5  665.33   38.80
   0   2   5  671.93   37.30
   0   2   5  699.73   36.90
   0   2   5  743.63   38.20
   0   2   5  696.93   36.60
   0   2   5  675.23   36.70
   0  -2   5  681.43   38.40
   0  -3   5    0.50    1.60
   0   3   5    0.30    0.80
   0   3   5    1.20    1.10
   0  -3   5    0.70    2.40
   0  -3   5    2.00    2.20
   0  -3   5    1.30    2.10
   0  -3   5    0.40    2.40
   0  -3   5    0.60    1.70
   0   3   5    2.40    0.90
   0  -3   5    1.30    1.20
   0   3   5    0.20    0.70
   0  -3   5    2.70    2.20
   0   3   5    0.00    1.00
   0   3   5    2.10    0.80
   0  -3   5    5.80    2.40
   0   3   5    0.50    1.00
   0  -3   5    1.80    3.20
   0  -3   5    0.70    1.90
   0   3   5    0.00    0.70
   0  -3   5    4.00    2.00
   0   3   5    0.10    0.70
   0  -3   5    1.10    1.70
   0  -3   5    0.20    1.60
   0  -3   5    0.30    1.70
   0   3   5    2.30    0.80
   0   3   5    0.40    0.70
   0   3   5    0.10    0.80
   0   3   5    0.30    0.50
   0  -3   5   -0.30    2.20
   0  -3   5   -0.10    0.80
   0  -3   5    1.30    1.40
   0  -3   5    8.80    2.80
   0  -3   5    0.20    1.40
   0   3   5   -0.10    0.60
   0   3   5    0.00    0.60
   0   3   5    0.30    0.90
   0   3   5    0.00    0.80
   0  -3   5    4.60    2.20
   0  -3   5    0.00    1.10
   0   3   5    0.20    0.60
   0  -3   5    6.80    1.80
   0   3   5    0.20    0.50
   0  -3   5    0.60    1.30
   0   3   5    0.10    0.60
   0   3   5    0.10    0.60
   0  -3   5    0.60    2.90
   0  -3   5    0.70    1.60
   0   4   5  404.56   21.80
   0  -4   5  368.26   22.30
   0  -4  -5  367.56   24.40
   0   4   5  393.76   21.40
   0  -4   5  400.56   23.90
   0   4   5  396.36   21.40
   0   4   5  400.46   21.50
   0   4   5  407.86   24.60
   0  -4   5  378.56   22.30
   0   4   5  404.76   21.90
   0   4   5  384.76   21.90
   0   4   5  382.86   22.40
   0  -4   5  384.46   24.80
   0  -4   5  378.66   23.40
   0   4   5  414.56   21.60
   0  -4   5  376.26   24.00
   0   4   5  379.16   22.10
   0  -4   5  410.66   23.80
   0  -4   5  397.06   24.40
   0  -4   5  360.76   21.80
   0   4   5  411.66   22.30
   0   4   5  398.26   21.40
   0  -4   5  415.06   22.80
   0  -4   5  392.56   23.50
   0   4   5  372.56   22.60
   0   4   5  403.06   21.70
   0  -4   5  331.07   27.30
   0   4   5  414.96   21.50
   0   4   5  411.86   23.30
   0   4   5  416.86   21.70
   0   4   5  386.06   21.40
   0  -4   5  378.56   24.00
   0  -4   5  388.26   23.80
   0  -4   5  364.36   22.20
   0   4   5  397.06   21.60
   0  -4   5  408.26   24.80
   0  -4   5  398.36   27.90
   0  -4   5  413.46   24.70
   0  -4   5  376.06   27.10
   0   4   5  406.66   22.10
   0   4   5  394.86   22.30
   0   4   5  414.86   22.60
   0  -4   5  406.36   30.20
   0  -4   5  393.36   23.20
   0  -4   5  387.16   23.00
   0  -4   5  391.66   25.90
   0   4   5  420.76   22.80
   0   5   5    0.40    1.00
   0  -5   5    5.30    2.50
   0   5   5   -0.30    1.30
   0   5   5    0.20    0.70
   0  -5   5    0.70    2.30
   0   5   5    0.10    0.80
   0  -5   5   -0.30    2.10
   0  -5   5   -0.60    3.00
   0   5   5    1.20    0.90
   0  -5   5    0.20    1.30
   0  -5   5    1.60    3.20
   0  -5   5   -0.10    1.80
   0   5   5    0.00    0.90
   0  -5   5   -0.90    1.90
   0   5   5    2.90    1.90
   0   5   5    1.30    1.20
   0   5   5   -0.10    0.70
   0   5   5    2.10    0.90
   0  -5   5    1.90    1.60
   0   5   5   -0.90    1.50
   0   5   5    0.40    0.70
   0  -5   5   -0.90    3.60
   0  -5   5   -0.20    3.50
   0   5   5    0.10    0.70
   0  -5   5    0.00    1.80
   0  -5   5    0.50    1.70
   0  -5   5    0.90    1.30
   0  -5   5    1.00    1.70
   0   5   5    1.30    0.80
   0   5   5    2.90    1.70
   0  -5   5   -0.10    2.40
   0  -5   5    0.30    2.30
   0   5   5    7.90    2.10
   0  -5   5    4.10    2.30
   0  -5   5    3.60    2.10
   0  -5   5   -1.00    2.40
   0  -5   5    5.10    1.80
   0   5   5    0.50    0.70
   0   5   5    0.10    0.70
   0   5   5    0.10    0.60
   0  -5   5    4.30    2.00
   0  -5  -5    3.80    2.80
   0   5   5    0.20    0.80
   0  -6   5  268.87   18.00
   0   6   5  296.07   18.10
   0   6   5  291.97   16.90
   0  -6   5  297.97   18.70
   0  -6   5  288.77   17.70
   0   6   5  305.47   17.00
   0   6   5  287.37   18.60
   0  -6   5  305.07   18.40
   0   6   5  313.77   17.30
   0  -6   5  309.07   20.10
   0  -6   5  335.97   23.10
   0   6   5  316.77   18.30
   0   6   5  311.87   16.90
   0  -6   5  315.17   24.90
   0  -6   5  343.47   20.10
   0  -6   5  311.87   19.40
   0   6   5  294.97   17.40
   0   6   5  312.07   17.70
   0   6   5  316.87   17.60
   0   6   5  325.97   17.80
   0  -6  -5  269.27   18.70
   0   6   5  312.17   17.10
   0   6   5  304.17   17.10
   0   6   5  314.87   17.50
   0  -6   5  323.37   23.90
   0   6   5  313.97   16.90
   0  -6  -5  300.27   20.20
   0   6   5  308.67   16.90
   0   6   5  316.47   17.00
   0  -6   5  330.87   19.60
   0  -6   5  315.27   17.90
   0  -6   5  326.27   19.00
   0  -6   5  314.27   18.60
   0  -6   5  321.77   19.50
   0   6   5  315.87   17.20
   0  -6   5  313.57   18.90
   0   6   5  264.47   19.80
   0  -6   5  311.27   19.30
   0  -6   5  301.27   21.20
   0   6   5  297.37   17.20
   0  -7   5    0.50    1.80
   0  -7   5   -0.10    1.50
   0  -7   5   -0.60    2.40
   0   7   5   -0.40    0.70
   0  -7  -5   -1.50    1.70
   0   7   5    0.70    0.70
   0   7   5    0.30    0.60
   0  -7   5    0.50    1.50
   0   7   5   -0.50    0.60
   0  -7   5    0.10    1.10
   0   7   5    0.80    1.20
   0   7   5   -0.10    0.70
   0  -7   5    0.60    1.10
   0  -7   5    1.60    1.60
   0   7   5    2.20    1.00
   0  -7   5   -0.50    1.70
   0  -7  -5    0.30    1.80
   0   7   5    0.30    0.80
   0   7   5    1.00    0.70
   0  -7   5    0.20    2.30
   0   7   5   -0.10    0.50
   0   7   5    0.50    0.70
   0  -7   5   -0.60    2.80
   0   7   5   -0.30    1.10
   0   7   5   -0.30    0.60
   0   7   5    0.80    0.90
   0   7   5    0.40    0.90
   0  -7   5    0.80    1.40
   0   7   5    0.90    1.00
   0  -7   5    0.60    1.60
   0   7   5    0.10    0.80
   0  -7   5   -0.10    1.70
   0   7   5   -0.70    0.70
   0  -8  -5  375.66   18.90
   0  -8   5  334.47   18.80
   0   8   5  313.37   18.30
   0  -8   5  359.96   22.40
   0   8   5  298.17   18.20
   0   0   6  176.58   11.20
   0   0   6  153.38   11.20
   0  -1   6    0.10    0.60
   0  -1   6   -0.50    2.00
   0  -1   6   -0.80    1.50
   0  -1   6   -2.90    2.00
   0  -1   6    7.40    2.30
   0  -1   6   -0.70    1.60
   0  -1   6   -0.20    1.50
   0  -1   6   -0.20    1.40
   0   1   6    1.20    1.10
   0  -1   6    0.50    1.60
   0  -1   6    0.40    1.20
   0  -1   6    0.60    1.50
   0   1   6    2.00    0.90
   0   1   6   -0.20    0.60
   0  -1   6    0.40    1.20
   0  -1   6   -2.30    2.00
   0  -1   6   -0.70    1.50
   0   2   6 1322.67   63.69
   0  -2   6 1104.39   65.09
   0  -2   6 1006.10   62.39
   0  -2   6 1081.39   63.09
   0   2   6 1285.87   61.39
   0  -2   6 1049.09   63.79
   0  -2   6 1081.99   63.39
   0   2   6 1202.08   61.29
   0  -2   6  986.30   62.49
   0  -2   6 1017.90   62.29
   0   2   6 1148.59   61.09
   0   2   6 1284.87   61.69
   0   2   6 1215.98   61.59
   0   2   6 1136.29   61.19
   0  -2   6 1016.50   62.99
   0  -2   6 1159.68   63.59
   0   2   6 1294.07   61.79
   0  -2   6 1152.78   67.39
   0   2   6 1145.69   61.19
   0   2   6 1170.68   61.09
   0  -2   6 1168.38   63.69
   0   2   6 1344.77   61.69
   0  -2   6 1057.49   63.89
   0   2   6 1254.57   61.19
   0   2   6 1319.77   62.59
   0   2   6 1169.58   62.39
   0  -2   6 1080.19   63.09
   0   2   6 1132.89   61.29
   0  -2   6 1090.89   61.39
   0  -2   6 1016.40   61.79
   0   2   6 1207.68   61.49
   0  -2   6 1091.59   61.79
   0  -2   6 1094.09   63.59
   0   2   6 1285.07   61.29
   0   2   6 1299.57   62.09
   0  -2   6 1063.19   62.19
   0   3   6    1.00    1.40
   0  -3   6    0.50    1.10
   0  -3   6    0.90    1.00
   0  -3   6    0.40    1.80
   0  -3   6    2.80    2.10
   0   3   6    0.50    1.40
   0   3   6    1.50    0.90
   0  -3   6   -2.20    2.40
   0  -3   6   -0.30    1.20
   0   3   6   -0.20    0.60
   0  -3   6    2.30    1.70
   0  -3   6    0.60    2.40
   0   3   6    0.90    0.80
   0   3   6   -1.20    0.80
   0   3   6    0.20    0.70
   0  -3   6    1.80    2.00
   0  -3   6    2.40    2.00
   0  -3   6    1.50    3.30
   0   3   6    0.50    1.00
   0  -3   6    0.80    2.20
   0   3   6    1.70    1.30
   0   3   6    1.70    0.90
   0   3   6   -0.30    0.80
   0   3   6   -0.30    0.80
   0  -3   6    0.20    1.70
   0  -3   6    0.30    1.90
   0   3   6    0.60    1.00
   0  -3   6    1.90    3.30
   0   3   6    1.90    1.30
   0  -3   6    0.10    1.50
   0  -3   6   -0.90    2.80
   0  -3   6   -1.10    1.30
   0   3   6    0.00    0.40
   0  -3  -6   -0.70    2.00
   0  -3   6    0.40    1.70
   0   3   6    0.40    1.10
   0   3   6    2.70    0.90
   0  -3   6    0.70    2.40
   0   3   6    0.20    0.90
   0   3   6   -0.50    0.70
   0   3   6    1.10    0.80
   0   3   6    1.00    0.70
   0  -3   6    0.80    2.00
   0  -4   6    4.60    1.70
   0  -4   6    2.60    2.30
   0  -4   6    4.70    2.30
   0  -4   6    5.50    1.90
   0  -4   6    3.20    2.20
   0   4   6    3.40    1.00
   0  -4   6    6.10    2.50
   0  -4   6    3.90    2.80
   0   4   6    4.40    1.20
   0  -4   6    1.90    3.00
   0   4   6    3.50    1.00
   0  -4   6    3.10    2.70
   0   4   6    6.90    1.40
   0  -4  -6    1.10    2.20
   0  -4   6   12.50    2.90
   0   4   6    6.00    1.70
   0   4   6    3.10    1.90
   0  -4   6    2.50    1.60
   0  -4   6    2.50    3.20
   0   4   6    3.90    1.00
   0  -4   6    2.70    3.40
   0   4   6    3.50    1.00
   0  -4   6    3.40    2.20
   0  -4   6    3.40    1.60
   0   4   6    2.50    1.40
   0  -4   6    3.80    2.40
   0   4   6    3.60    1.20
   0   4   6    3.90    1.50
   0  -4   6    2.50    2.50
   0  -4   6    2.60    4.40
   0   4   6    4.90    2.50
   0   4   6    3.30    1.90
   0  -4   6    2.70    2.20
   0   4   6    3.10    1.30
   0  -4   6    5.20    2.60
   0  -4   6    6.00    3.00
   0   4   6    4.20    1.20
   0   4   6    3.90    2.00
   0  -5   6    1.20    1.80
   0   5   6   -0.10    1.00
   0  -5   6    1.10    1.30
   0   5   6    0.10    0.70
   0  -5   6   -2.20    2.40
   0  -5   6    1.50    1.20
   0  -5   6    8.20    2.20
   0  -5  -6   -1.60    2.10
   0   5   6    0.20    1.00
   0   5   6    0.50    0.70
   0   5   6    1.20    1.30
   0  -5   6    0.90    2.50
   0   5   6    3.20    1.10
   0   5   6    0.40    0.80
   0   5   6   -0.30    0.60
   0  -5   6    0.30    2.60
   0  -5   6    0.10    1.60
   0   5   6   -1.00    1.00
   0  -5   6    2.20    3.10
   0  -5   6    0.20    2.10
   0  -5   6    1.50    2.50
   0  -5   6   -1.00    1.80
   0  -5   6    0.70    1.90
   0   5   6   -0.90    1.50
   0  -5   6    0.00    4.30
   0   5   6    0.40    0.90
   0  -5   6   -2.10    1.80
   0   5   6   -1.30    1.30
   0  -5   6    0.60    2.20
   0   5   6    0.20    0.60
   0  -5   6    1.60    2.00
   0   5   6    0.20    0.70
   0   5   6    0.50    0.80
   0   5   6    0.00    1.70
   0   5   6   -0.40    0.70
   0   5   6    0.40    0.80
   0   5   6   -1.10    1.50
   0  -5   6    1.00    2.00
   0  -5   6    0.50    1.30
   0  -5   6   -1.10    3.70
   0   6   6   20.50    1.90
   0  -6   6   23.70    3.10
   0  -6   6   19.90    3.50
   0  -6  -6   15.30    3.10
   0   6   6   19.40    2.40
   0  -6   6   16.60    4.90
   0  -6   6   17.70    3.10
   0   6   6   20.30    3.30
   0   6   6   20.20    2.00
   0  -6   6   22.40    3.60
   0   6   6   20.80    2.00
   0   6   6   21.20    1.90
   0  -6   6   23.20    5.60
   0   6   6   19.20    2.00
   0  -6   6   19.60    2.50
   0  -6   6   23.50    3.80
   0  -6   6   23.30    3.50
   0   6   6   21.50    2.80
   0   6   6   25.10    2.20
   0   6   6   17.90    1.80
   0   6   6   20.40    2.10
   0  -6   6   21.00    3.40
   0   6   6   22.60    2.50
   0  -6   6   19.00    3.40
   0  -6   6   19.80    4.00
   0   6   6   20.30    2.20
   0   6   6   19.10    1.80
   0   6   6   14.10    3.00
   0   6   6   16.50    3.00
   0  -6   6   22.80    4.60
   0  -6   6   21.90    6.60
   0   6   6   20.70    1.90
   0  -6   6   17.60    2.70
   0  -6  -6   17.60    3.30
   0  -7   6   -0.50    2.10
   0   7   6    1.20    0.70
   0   7   6    0.20    0.70
   0  -7   6    0.60    1.10
   0  -7   6    1.00    1.10
   0  -7   6    0.20    1.20
   0  -7   6   -1.00    1.20
   0  -7  -6   -0.10    1.40
   0  -7   6    0.30    1.20
   0   7   6   -0.70    0.90
   0   7   6    1.20    0.70
   0   7   6   -0.20    0.40
   0  -7  -6   -0.40    1.30
   0  -7   6   -0.30    1.90
   0   7   6    0.00    0.70
   0   7   6   -0.10    0.40
   0   7   6    1.00    0.90
   0   7   6    0.70    0.60
   0   7   6   -0.10    0.60
   0   7   6    0.00    0.50
   0   7   6    0.30    0.60
   0  -7   6    1.40    0.90
   0   7   6    1.20    0.70
   0  -7   6    0.00    0.90
   0  -7   6    0.00    1.30
   0   7   6    0.40    0.50
   0  -7   6    0.30    1.40
   0   7   6   -0.30    0.50
   0   7   6    0.80    0.60
   0   7   6    1.90    1.00
   0  -1   7    0.40    1.80
   0  -1   7    0.30    1.90
   0  -2   7   34.10    7.20
   0  -2   7   21.90    4.30
   0   2   7   23.50    2.10
   0  -2   7   22.70    3.10
   0  -2   7   23.20    5.00
   0   2   7   24.20    2.50
   0  -2   7   27.90    4.10
   0   2   7   25.30    2.60
   0  -2   7   27.80    4.10
   0   2   7   24.90    2.20
   0  -2   7   26.70    4.80
   0  -2   7   34.10    4.30
   0  -2   7   35.50    4.90
   0   2   7   22.10    2.60
   0  -2   7   27.50    4.40
   0   2   7   26.20    2.30
   0   2   7   27.50    2.60
   0  -2   7   32.90    5.10
   0  -2   7   34.90    5.10
   0   2   7   26.30    3.00
   0   2   7   23.00    2.20
   0   3   7    0.70    0.80
   0  -3   7   -0.90    2.10
   0  -3   7    0.10    2.50
   0  -3   7    2.70    2.20
   0  -3   7    0.50    3.10
   0   3   7    0.60    0.90
   0   3   7   -0.10    1.00
   0  -3   7    2.50    2.40
   0   3   7    1.10    1.00
   0   3   7    0.00    0.80
   0  -3   7   -1.20    1.70
   0  -3   7    0.30    1.00
   0   3   7   -0.50    0.90
   0  -3   7    1.90    1.90
   0  -3   7    1.40    1.90
   0   3   7    0.50    0.90
   0  -3   7    7.80    2.10
   0   3   7    0.20    0.70
   0  -3   7   -0.20    1.40
   0   3   7    0.50    0.70
   0   3   7    1.40    1.20
   0   3   7    0.00    0.80
   0  -3   7    1.00    2.10
   0  -3   7    4.90    2.80
   0   3   7    4.20    0.90
   0  -3   7    0.80    1.80
   0  -3   7   -0.60    1.70
   0   3   7    0.60    1.00
   0   3   7    1.50    1.20
   0  -4   7    2.40    2.10
   0  -4   7    2.70    3.60
   0  -4   7   -0.80    1.90
   0   4   7    1.90    0.80
   0   4   7    1.60    1.10
   0   4   7    1.50    1.10
   0  -4   7    1.20    1.20
   0   4   7    1.60    1.00
   0   4   7    2.30    0.90
   0   4   7    1.70    0.90
   0   4   7    1.50    0.80
   0  -4   7    2.60    1.30
   0   4   7    1.60    0.80
   0   4   7    2.00    1.00
   0   4   7   -0.90    1.90
   0  -4   7    1.40    1.70
   0  -4   7    2.60    2.40
   0  -4   7    1.20    1.60
   0   4   7    1.10    1.30
   0   4   7    1.30    1.10
   0   4   7    0.90    0.80
   0  -4   7    2.30    2.20
   0   4   7    1.90    1.30
   0  -4   7    1.80    2.50
   0  -4   7    1.10    1.90
   0  -4   7    1.70    4.00
   0   4   7    2.50    1.00
   0  -4   7    1.80    1.70
   0  -4   7    1.90    2.00
   0  -4   7    3.40    2.40
   0   4   7    1.10    1.30
   0  -5   7   -0.70    1.80
   0  -5   7   -0.30    2.00
   0  -5   7    1.30    1.40
   0  -5   7    1.20    1.40
   0  -5   7    0.60    1.10
   0   5   7    2.00    1.00
   0   5   7    1.10    0.80
   0  -5   7    2.80    2.30
   0   5   7    2.10    1.20
   0  -5   7   -0.90    1.80
   0   5   7   -0.20    0.60
   0  -5   7    1.90    2.20
   0  -5   7   -0.20    3.00
   0   5   7   -0.50    1.10
   0  -5   7    1.00    1.10
   0   5   7   -0.10    0.60
   0   5   7   -0.60    1.20
   0   5   7   -1.30    1.90
   0   5   7    0.10    0.60
   0   5   7    0.10    0.90
   0   5   7    0.20    0.70
   0   5   7    0.50    0.80
   0  -5   7   -3.00    3.90
   0  -5   7    1.30    1.90
   0   5   7    0.50    0.80
   0  -5   7   -0.30    1.70
   0  -5   7    0.20    1.60
   0   5   7   -0.30    0.60
   0   6   7  230.98   14.30
   0  -6   7  257.37   15.20
   0   6   7  263.77   14.20
   0   6   7  248.28   14.60
   0  -6   7  270.67   15.00
   0   6   7  236.98   14.00
   0  -6   7  217.78   14.40
   0   6   7  221.78   14.30
   0   6   7  254.17   13.80
   0   6   7  254.77   13.90
   0  -6   7  258.27   14.80
   0   6   7  262.37   13.90
   0   6   7  271.57   14.10
   0  -6   7  258.87   14.70
   0   6   7  268.67   14.00
   0   6   7  248.38   13.80
   0  -6   7  274.37   14.50
   0  -6   7  271.87   15.50
   0   6   7  256.97   13.90
   0   6   7  254.77   14.00
   0  -6   7  252.67   14.40
   0  -6   7  279.57   15.20
   0   6   7  258.87   14.10
   0  -2   8  111.99    8.10
   0  -2   8  109.79    8.00
   0   3   8    1.60    0.80
   0   3   8    0.00    0.70
   0   3   8    1.00    0.90
   0  -3   8    2.30    1.90
   0  -3   8    0.20    1.70
   0   3   8    0.80    0.80
   0   3   8   -0.70    0.80
   0   3   8    0.60    0.70
   0   3   8   -0.40    1.00
   0   3   8   -0.60    0.90
   0  -3   8    1.50    1.40
   0  -3   8    0.70    1.60
   0   4   8   12.40    1.30
   0   4   8   10.90    2.00
   0  -4   8    8.40    2.20
   0  -4   8   10.50    2.30
   0   4   8   11.40    1.30
   0   4   8   11.90    1.30
   0   4   8   10.80    1.30
   0  -4   8    8.50    2.70
   0   4   8   10.40    1.90
   0   4   8   10.50    1.40
   0   4   8   13.20    1.70
   0   4   8   14.20    1.70
   0  -4   8   11.40    1.90
   0  -4   8   11.90    2.30
   0   4   8   11.60    1.40
   0  -4   8    4.00    1.70
   0   5   8    0.60    0.80
   0   5   8    0.40    0.60
   0  -5   8   -0.70    1.00
   0   5   8    0.00    0.70
   0   5   8   -0.30    0.50
   0  -5   8   -0.60    1.30
   1  -1   0 3259.27  178.78
  -1  -1   0 2961.90  180.58
   1   1   0 3451.85  179.68
   1   1   0 3261.17  178.08
  -1  -1   0 3804.42  179.28
   1  -1   0 2969.60  180.38
  -1   1   0 3518.95  178.28
  -1   1   0 3932.21  180.68
   1  -2   0    0.20    0.70
   1   2   0    0.10    0.30
  -1  -2   0    2.50    1.10
   1  -2   0    1.30    0.50
  -1   2   0    0.10    0.40
   1   2   0    0.00    0.40
  -1  -2   0    0.00    0.80
  -1  -3   0  659.93   37.40
   1  -3   0  621.04   37.10
  -1   3   0  731.73   36.80
  -1  -3   0  705.33   37.30
   1   3   0  708.93   36.80
   1  -3   0  625.94   37.60
   1   3   0  723.03   36.70
   1   3   0  691.63   36.30
  -1   4   0    0.30    0.40
   1  -4   0   -0.20    0.90
  -1  -4   0    1.00    1.30
   1   4   0    1.80    0.60
   1   4   0    1.30    0.80
  -1  -4   0    0.60    1.10
   1   4   0    0.30    0.60
  -1   4   0    1.40    1.00
   1  -4   0    0.60    0.80
  -1  -4   0    0.50    1.20
  -1   5   0    8.90    1.10
   1   5   0    7.80    1.60
  -1  -5   0    7.40    2.20
   1   5   0    8.60    1.30
  -1  -5   0    7.20    2.20
  -1  -5   0    6.90    2.20
   1   6   0    0.10    0.70
  -1  -6   0    4.90    2.00
   1  -6   0   -0.80    1.50
  -1  -6   0    0.60    1.90
  -1  -6   0    0.90    1.90
  -1   6   0    1.60    0.90
  -1  -6   0    3.30    1.90
   1  -6   0   -0.10    1.40
  -1   6   0   -0.40    0.80
  -1  -6   0   -0.30    1.60
   1  -6   0    0.80    1.90
   1   6   0    3.40    1.10
   1   6   0   -0.20    0.70
   1   6   0    1.10    1.10
  -1  -6   0    0.90    3.70
   1  -6   0   -0.40    1.50
  -1   6   0   -0.80    0.60
  -1  -6   0   -0.10    2.60
   1   6   0    1.00    0.80
  -1  -6   0   -0.90    1.70
  -1  -6   0   -0.50    1.60
   1  -6   0    0.30    2.80
   1  -6   0    1.80    1.30
   1  -6   0   -0.10    1.50
   1  -6   0   -0.40    1.00
  -1   7   0  239.78   14.20
  -1  -7   0  264.97   15.50
   1   7   0  253.07   14.50
   1  -7   0  244.48   16.40
  -1  -7   0  267.17   22.90
   1  -7   0  251.77   15.30
   1   7   0  215.18   14.60
   1  -7   0  246.68   14.90
  -1  -7   0  276.97   16.70
   1  -7   0  233.88   16.10
   1  -7   0  235.48   18.50
   1   7   0  251.17   14.30
  -1  -7   0  266.17   15.80
  -1   7   0  242.38   15.50
  -1   7   0  254.67   14.30
  -1  -7   0  264.27   20.30
  -1  -7   0  276.77   17.30
   1   7   0  258.47   14.30
   1  -7   0  271.17   16.60
   1   7   0  261.57   15.80
  -1   7   0  238.88   14.40
  -1  -7   0  269.47   17.00
   1  -7   0  254.77   15.60
   1   8   0   -0.20    0.80
  -1  -8   0   -0.80    1.70
   1  -8   0    0.00    1.90
   1  -8   0    0.10    1.50
   1  -8   0    0.00    1.70
  -1  -8   0   -1.00    1.90
   1   8   0    0.30    0.80
  -1  -8   0    0.80    1.50
   1  -8   0   -0.70    2.50
   1   8   0   -0.20    0.90
  -1  -8   0    1.20    2.20
  -1   8   0    0.20    0.90
   1   8   0   -0.30    1.10
  -1   8   0    0.80    1.20
  -1  -8   0    0.60    2.10
   1   8   0    0.00    0.60
   1  -8   0    0.20    1.50
  -1  -8   0    2.90    4.80
   1  -8   0   -0.70    1.60
   1  -8   0    0.10    1.10
  -1  -8   0    0.00    3.00
  -1   8   0    0.50    0.90
  -1   9   0  892.31   48.10
   1   9   0  844.72   48.10
  -1   9   0  817.32   48.10
   1  -9   0  984.40   48.70
   1   9   0  879.51   48.20
   1   9   0  857.81   48.10
   1   9   0  880.01   48.30
   1  -9   0 1009.20   48.90
  -1  -9   0  931.01   48.90
  -1  -9   0  946.31   51.59
  -1   9   0  808.12   48.30
   1  -9   0  979.30   49.50
  -1  -9   0  911.11   49.60
  -1  -9   0  994.00   49.60
  -1  -9   0  955.00   48.80
   1  -9   0  870.91   50.49
  -1   0   1    6.70    1.00
  -1   0   1    4.30    0.60
  -1   1   1 5218.48  257.17
   1  -1   1 4668.03  254.67
   1  -1   1 4622.14  255.27
  -1   1   1 4777.42  253.87
   1   1   1 5169.18  254.87
  -1  -1   1 4255.77  254.37
   1   1   1 4553.84  255.47
  -1  -1   1 5252.77  256.97
  -1  -1   1 5043.40  255.77
   1   1   1 4709.73  253.57
   1   2  -1  394.56   24.70
   1  -2   1  497.55   25.10
   1  -2   1  406.86   25.50
   1  -2   1  465.55   25.00
   1   2   1  518.15   24.70
  -1   2  -1  457.45   24.90
   1   2   1  471.75   24.60
  -1  -2   1  440.76   25.40
   1   2   1  515.55   24.90
  -1  -2   1  511.95   25.50
   1   2   1  460.75   25.00
  -1  -2   1  419.96   25.70
  -1   2  -1  460.15   24.40
   1  -3   1   19.50    2.00
   1  -3   1   19.90    2.10
  -1   3   1   24.50    3.20
   1  -3   1   15.90    2.40
  -1   3   1   16.80    1.70
   1   3  -1   20.00    1.80
   1   3  -1   18.30    1.50
   1  -3   1   17.20    1.90
   1  -3   1   15.40    1.80
  -1   3   1   17.50    1.40
  -1   3   1   17.40    1.40
  -1  -3  -1   16.80    2.30
  -1   3   1   16.80    1.50
  -1   3   1   17.30    1.70
  -1  -3  -1   17.50    2.10
  -1   3   1   16.30    1.30
   1  -3   1   18.50    2.20
   1   3   1   20.00    1.30
   1   3   1   17.10    1.40
  -1  -3   1   18.30    2.30
   1   3   1   17.80    1.60
  -1   3  -1   16.40    1.30
  -1  -3   1   14.10    2.50
  -1  -3   1   17.60    2.40
   1  -3  -1   15.70    1.40
   1   3   1   18.70    1.90
  -1  -3   1   17.10    2.20
  -1  -3   1   18.00    2.20
   1  -3  -1   13.40    2.10
   1   3   1   17.60    1.40
   1   3   1   20.40    1.80
  -1   4   1  309.77   17.00
  -1  -4  -1  276.77   17.60
   1  -4   1  307.77   17.10
  -1   4   1  307.47   16.30
  -1   4   1  305.57   18.90
   1  -4   1  288.97   17.00
   1  -4   1  275.47   18.30
  -1  -4  -1  300.37   17.40
   1   4  -1  293.67   16.20
   1  -4   1  293.67   17.60
   1   4  -1  298.37   16.70
  -1   4   1  300.47   16.20
  -1   4   1  291.87   16.00
   1  -4   1  325.27   17.20
   1  -4   1  334.17   17.10
  -1   4   1  309.77   16.80
  -1  -4  -1  268.17   17.40
  -1   4   1  292.17   16.30
   1   4   1  291.37   16.00
   1  -4  -1  275.77   17.50
  -1  -4   1  273.87   17.60
   1   4   1  304.07   16.90
  -1   4  -1  278.47   16.20
   1   4   1  305.77   17.00
  -1  -4   1  250.77   18.40
   1   4   1  300.07   16.40
  -1  -4   1  296.97   17.30
  -1  -4   1  289.27   17.40
   1   4   1  303.37   16.10
  -1  -4   1  317.97   17.60
  -1  -4   1  285.87   17.80
   1   4   1  292.87   16.20
   1  -5   1  591.54   33.30
  -1   5   1  545.05   31.60
   1   5  -1  576.54   32.40
  -1  -5  -1  560.84   32.90
  -1   5   1  528.75   31.60
  -1   5   1  605.24   32.40
  -1   5   1  593.24   34.70
   1  -5   1  574.84   32.80
  -1   5   1  557.64   31.90
  -1  -5  -1  559.54   33.20
   1  -5   1  642.74   32.90
   1   5  -1  584.04   31.70
  -1  -5  -1  554.64   33.50
   1  -5   1  654.93   32.70
   1   5   1  616.84   31.80
   1   5   1  595.14   31.40
  -1  -5   1  573.94   33.40
   1   5   1  606.54   31.90
   1   5   1  595.94   32.70
  -1  -5   1  604.84   33.60
   1  -5  -1  555.74   33.20
  -1  -5   1  615.74   33.40
  -1  -6  -1   91.99   10.90
  -1  -6  -1   86.09    8.50
   1  -6   1   96.19   10.00
  -1  -6  -1   97.89    8.90
   1   6  -1  109.89    6.50
   1  -6   1   99.89   11.80
  -1   6   1  107.89    6.60
   1  -6   1  104.99    7.50
   1  -6   1  106.59    7.20
  -1   6   1  114.79    7.80
  -1  -6  -1   92.79    7.70
   1   6  -1  111.59    6.50
  -1   6   1  109.49    6.70
  -1   6   1  111.69    6.60
  -1  -6  -1   96.89   13.00
   1  -6   1  101.69    8.40
  -1   6   1  113.99    6.50
  -1   6   1  105.89    6.30
   1   6  -1  115.59    6.70
  -1  -6  -1  110.09    8.90
  -1  -6  -1   92.49    7.90
   1  -6   1  102.99    7.70
   1  -6   1   99.89    8.30
   1  -6   1  114.79    8.40
   1   6  -1   98.19    6.70
   1  -6   1   98.59    7.00
   1   6   1  105.59    6.60
   1  -6  -1  107.49    8.00
  -1   6  -1  110.89    6.50
  -1  -6   1   99.29    8.00
  -1  -6   1   90.69   10.80
   1   6   1  110.59    6.80
   1   6   1  116.19    7.90
   1   6   1  113.69    7.10
  -1  -6   1   99.59    8.70
   1   6   1  110.79    6.50
   1  -6  -1  129.79    9.10
   1  -6  -1  110.59    7.80
   1  -6  -1   94.59    8.20
  -1  -6   1  109.29    8.40
  -1  -6   1  100.69    8.00
  -1  -6   1   90.79   13.70
   1   6   1  106.19    7.90
   1  -6  -1  102.99    7.40
  -1  -6   1   95.49    8.80
   1   6   1  109.69    6.60
  -1  -6   1  115.09    8.60
  -1  -6   1  116.29    9.00
   1  -6  -1   93.19   10.30
   1   6   1  109.69    6.30
   1  -7   1  143.49   11.00
   1  -7   1  139.29   10.00
  -1   7   1  148.19    9.10
  -1   7   1  150.28    9.00
   1  -7   1  166.58   11.30
   1   7  -1  169.48    9.30
   1  -7   1  147.39   11.00
  -1   7   1  150.18    9.30
   1   7  -1  174.48    9.20
   1  -7   1  151.78   10.20
  -1   7   1  150.18    9.20
  -1   7   1  145.99   10.40
   1  -7   1  150.48   10.10
   1  -7   1  149.69   13.50
   1   7  -1  185.38    9.20
   1  -7  -1  146.69   11.20
  -1   7  -1  141.09   10.00
   1  -7  -1  146.99   10.20
  -1   7  -1  146.29    9.00
   1  -7  -1  150.48    9.50
   1  -7  -1  150.38   10.40
   1  -7  -1  142.49   13.10
   1  -7  -1  164.48   11.50
   1  -7  -1  160.78   10.00
   1  -8   1  241.08   14.30
  -1   8   1  214.38   12.60
   1   8  -1  219.78   12.40
  -1   8   1  206.08   13.70
  -1  -8  -1  221.48   14.70
   1  -8   1  221.88   16.40
   1  -8   1  216.48   13.30
  -1   8   1  214.68   12.50
  -1  -8  -1  213.28   14.60
   1   8  -1  200.58   12.30
   1   8  -1  212.88   12.50
   1  -8   1  213.08   14.00
  -1  -8  -1  231.48   13.80
   1   8  -1  214.78   13.70
   1  -8   1  223.68   14.20
  -1  -8  -1  211.48   17.10
  -1   8   1  204.38   12.30
   1  -8   1  217.88   13.20
  -1  -8  -1  224.18   13.50
  -1  -8  -1  237.38   14.80
   1  -8   1  228.58   13.20
  -1   8   1  220.28   12.90
   1   8   1  208.88   12.10
   1  -8  -1  258.67   15.00
   1  -8  -1  218.58   14.30
   1   8   1  215.28   12.50
  -1  -8   1  225.78   14.40
  -1   8  -1  206.28   12.30
   1  -8  -1  221.88   13.00
   1   8   1  213.28   12.70
  -1  -8   1  211.58   13.70
  -1  -8   1  218.58   14.70
   1  -8  -1  240.78   13.60
  -1  -8   1  215.08   16.90
   1  -8  -1  238.48   13.70
  -1   8  -1  193.18   13.30
   1   8   1  216.58   12.50
  -1  -8   1  214.78   13.20
   1   8   1  212.38   13.80
  -1  -8   1  221.68   19.70
   1   8   1  224.98   12.40
   1   9  -1   20.70    2.00
   1  -9   1   23.80    3.00
   1  -9   1   20.30    2.70
  -1  -9  -1   20.00    3.30
  -1  -9  -1   21.50    2.60
   1  -9   1   19.70    2.30
   1  -9   1   22.00    2.20
  -1   9   1   19.90    2.00
  -1   9   1   18.70    2.10
  -1   9   1   20.30    1.80
   1   9  -1   19.90    1.80
  -1  -9  -1   20.60    4.30
  -1   9   1   20.50    1.90
  -1   9   1   14.20    2.90
   1   9  -1   18.60    1.70
  -1  -9  -1   19.40    3.10
  -1  -9  -1   20.10    2.60
   1  -9   1   21.80    3.90
   1   9   1   19.80    1.80
   1   9   1   21.50    1.80
   1  -9  -1   21.30    2.10
   1   9   1   19.80    2.10
   1  -9  -1   19.80    3.00
  -1  -9   1   21.90    2.50
  -1  -9   1   20.10    3.10
   1  -9  -1   19.30    2.60
   1   9   1   19.80    2.00
  -1  -9   1   21.30    2.90
   1   9   1   20.10    2.10
  -1  -9   1   23.00    4.30
   1   9   1   17.90    2.00
   1  -9  -1   22.40    2.50
  -1  -9   1   19.60    4.60
  -1   0   2 5104.59  245.58
  -1   0   2 4466.75  244.58
   1   0   2 4710.43  245.28
  -1   0   2 4691.23  245.28
   1   0   2 4534.95  245.98
   1   0   2 4877.61  244.68
   1   0   2 4190.08  244.58
  -1   1   2  566.34   29.70
   1  -1   2  631.24   29.80
  -1   1   2  569.74   30.70
  -1   1   2  501.15   29.90
  -1   1   2  552.54   29.60
  -1  -1   2  550.14   30.30
   1   1   2  611.24   29.70
   1   1   2  541.85   29.90
   1   1   2  568.64   29.70
  -1  -1   2  502.35   30.10
  -1  -1   2  496.95   29.60
  -1  -1   2  626.54   30.10
   1  -2   2 2039.60  112.29
  -1   2   2 2062.39  111.49
  -1   2   2 2202.88  111.39
   1  -2   2 1968.70  112.19
  -1   2   2 2237.58  112.89
  -1   2   2 2209.08  112.09
   1  -2   2 2134.49  112.29
   1  -2   2 1956.80  112.09
   1   2  -2 2164.68  111.79
   1  -2   2 2128.09  112.79
  -1   2   2 2150.68  111.59
  -1   2   2 2268.17  114.69
   1  -2   2 2306.97  114.59
   1   2   2 2164.78  112.09
  -1  -2   2 1815.92  112.49
   1   2   2 2101.79  113.59
   1   2   2 2103.79  111.79
  -1  -2   2 2056.49  112.49
   1   2   2 2103.99  111.99
  -1  -2   2 2340.57  112.89
  -1   2  -2 1954.00  111.49
  -1  -2   2 1846.92  112.39
  -1  -2   2 1984.20  112.59
   1   2   2 2050.89  111.49
  -1  -2   2 2289.77  112.69
   1   2   2 2216.18  111.49
  -1  -2   2 2327.47  112.79
  -1  -2   2 2164.68  111.89
   1   2   2 2159.68  112.09
   1   2   2 2328.27  113.79
  -1   3   2    1.60    1.50
   1  -3   2    0.70    1.10
  -1   3   2    1.40    0.50
   1  -3   2    1.00    0.80
  -1   3   2    2.00    0.80
   1  -3   2    1.20    1.10
   1  -3   2    1.00    0.90
   1   3  -2    1.00    0.40
  -1   3   2    1.20    0.50
   1  -3   2    1.30    0.90
  -1   3   2    1.60    0.70
   1  -3   2    1.40    1.00
   1  -3   2    1.10    0.80
  -1  -3  -2    1.80    1.20
  -1   3   2    1.70    0.50
   1  -3   2    1.10    0.80
   1   3   2    1.50    0.90
  -1  -3   2    1.60    1.40
  -1  -3   2    1.10    0.80
  -1  -3   2    1.60    1.20
   1   3   2    1.70    0.60
  -1  -3   2    2.10    1.30
  -1  -3   2    0.70    1.00
   1   3   2    1.70    0.70
   1   3   2    1.40    0.90
   1   3   2    2.50    0.70
   1   3   2    2.10    0.60
  -1   4   2   29.30    5.20
  -1   4   2   32.80    3.00
   1   4  -2   30.70    2.80
  -1   4   2   32.50    2.40
   1  -4   2   33.40    3.40
   1  -4   2   29.60    3.70
  -1   4   2   33.80    2.60
  -1  -4  -2   29.50    3.20
  -1  -4  -2   31.00    3.80
   1  -4   2   34.60    3.40
   1  -4   2   26.70    3.90
  -1   4   2   32.20    2.90
  -1   4   2   33.80    2.60
   1   4  -2   30.10    2.40
   1  -4   2   32.10    3.30
  -1  -4  -2   28.30    3.50
  -1   4   2   34.60    2.50
   1   4   2   31.90    2.40
   1  -4  -2   27.20    3.70
   1   4   2   31.40    3.10
   1   4   2   34.20    3.40
  -1  -4   2   29.90    3.80
  -1  -4   2   27.20    3.20
   1   4   2   35.40    2.50
   1   4   2   34.20    2.90
  -1  -4   2   28.80    3.40
  -1  -4   2   32.70    3.60
   1   4   2   30.50    2.60
   1   4   2   33.80    2.30
  -1  -4   2   25.10    4.00
   1  -5   2   14.50    2.90
  -1   5   2   19.20    1.80
  -1   5   2   21.00    2.10
   1  -5   2   19.80    3.00
   1   5  -2   18.50    1.90
  -1   5   2   17.80    2.60
  -1   5   2   18.10    2.10
   1  -5   2   20.40    3.10
   1  -5   2   20.30    3.30
   1  -5   2   18.50    2.90
  -1   5   2   18.80    2.10
  -1  -5  -2   21.80    3.80
   1  -5   2   14.70    3.80
   1  -5   2   20.00    3.20
   1  -5   2   23.90    5.20
   1   5  -2   16.90    2.20
   1  -5   2   21.60    3.20
  -1   5   2   22.90    2.70
   1   5   2   22.40    2.30
   1  -5  -2   18.60    3.50
  -1  -5   2   20.70    3.90
  -1  -5   2   19.20    3.60
  -1  -5   2   17.90    4.00
   1   5   2   20.10    2.60
  -1  -5   2   18.40    3.00
  -1  -5   2   24.40    6.50
  -1  -5   2   12.60    2.70
   1   5   2   27.90    3.20
  -1  -5   2   20.70    4.50
   1   5   2   24.60    2.00
  -1  -5   2   21.70    3.80
  -1  -5   2   28.70    4.30
  -1   6   2   71.29    5.50
   1  -6   2   72.49    6.00
   1  -6   2   81.39    6.90
   1  -6   2   75.19    6.80
   1  -6   2   73.29    7.10
   1  -6   2   75.99    6.40
  -1  -6  -2   65.69    9.70
  -1   6   2   79.29    5.00
  -1  -6  -2   65.49    7.10
   1  -6   2   88.69    7.20
   1  -6   2   84.29    6.30
  -1   6   2   76.39    5.20
  -1   6   2   78.99    6.30
   1   6  -2   78.19    5.00
  -1   6   2   81.09    5.20
  -1   6   2   83.59    4.80
  -1   6   2   80.89    5.20
   1  -6   2   72.39    8.60
   1  -6   2   74.49    6.90
  -1  -6  -2   59.79    7.30
  -1   6   2   80.29    5.60
   1  -6   2   73.09   10.60
  -1   6   2   79.59    5.20
   1   6  -2   77.19    5.10
   1  -6   2   75.29    6.20
  -1   6   2   78.49    5.40
  -1   6   2   81.29    5.10
  -1  -6  -2   78.69    7.60
  -1   6   2   80.89    4.90
   1  -6   2   75.59    6.30
   1  -6   2   79.69    6.20
   1   6  -2   77.49    4.90
  -1  -6   2   75.79    6.10
   1   6   2   78.39    4.80
  -1  -6   2   81.99    5.90
   1   6   2   86.59    6.70
  -1  -6   2   79.79    7.40
  -1  -6   2   76.79    9.70
   1   6   2   76.19    4.80
  -1  -6   2   79.99    8.50
   1  -6  -2   80.59    7.30
   1   6   2   79.49    5.00
   1   6   2   73.39    5.60
  -1  -6   2   66.99    7.20
   1   6   2   78.69    5.70
  -1  -6   2   82.89    7.40
   1  -6  -2   63.59    6.70
   1   6   2   74.19    5.10
   1  -6  -2   69.39    6.10
  -1  -6   2   65.79    5.50
   1   6   2   82.09    5.50
   1   6   2   79.69    5.10
  -1  -6   2   69.19    7.40
   1   6   2   79.39    5.10
   1  -6  -2   68.49    6.30
   1   6   2   78.29    5.20
   1   6   2   76.99    5.40
   1   6   2   82.29    5.30
  -1  -6   2   66.89   11.50
   1  -7   2   18.00    3.20
   1   7  -2   11.10    1.60
  -1   7   2   12.70    2.80
   1   7  -2   11.90    1.70
   1  -7   2   12.10    3.10
   1  -7   2   14.90    6.10
   1   7  -2   14.90    2.00
   1  -7   2   11.30    2.50
  -1   7   2   14.50    1.70
   1  -7   2   13.40    3.30
  -1   7   2   10.10    1.70
   1  -7   2   14.50    2.80
   1  -7   2   12.90    2.60
  -1   7   2   15.00    2.30
  -1   7   2   14.10    1.90
  -1   7   2   13.30    2.20
  -1   7   2   12.10    1.80
   1  -7   2   11.50    4.10
   1  -7   2   13.90    3.20
   1  -7  -2   12.10    3.30
  -1   7  -2    9.70    2.10
   1  -7  -2   15.40    2.80
   1  -7  -2    8.30    2.70
   1  -7  -2   11.50    2.70
   1  -7  -2   12.30    2.80
   1  -7  -2   15.60    2.60
   1  -8   2  202.48   16.40
  -1  -8  -2  189.78   13.50
  -1   8   2  190.78   11.50
   1  -8   2  208.48   12.20
  -1  -8  -2  182.28   15.50
  -1   8   2  201.48   11.20
   1   8  -2  181.38   12.40
   1  -8   2  204.38   13.00
  -1  -8  -2  214.38   13.90
  -1  -8  -2  181.88   13.00
  -1   8   2  202.98   11.40
  -1   8   2  186.48   12.60
  -1  -8  -2  205.08   12.70
  -1   8   2  190.78   11.30
  -1   8   2  189.88   11.20
   1  -8   2  208.18   15.10
  -1  -8  -2  201.38   11.90
   1  -8   2  195.48   11.80
   1  -8   2  205.98   12.90
   1  -8   2  203.48   12.00
   1   8  -2  186.68   11.30
  -1  -8  -2  201.28   12.50
  -1   8   2  202.28   11.80
   1   8  -2  186.88   11.10
  -1  -8   2  203.58   12.60
   1  -8  -2  203.78   12.30
   1   8   2  195.58   11.20
   1   8   2  191.88   11.20
   1  -8  -2  205.18   12.00
  -1  -8   2  204.98   12.80
  -1  -8   2  190.68   11.60
   1  -8  -2  207.88   12.50
   1  -8  -2  201.18   11.60
   1   8   2  190.88   11.30
   1   8   2  192.88   11.70
   1  -8  -2  204.08   13.40
   1  -8  -2  192.18   12.90
  -1  -8   2  193.58   13.20
  -1  -8   2  197.08   18.10
  -1  -8   2  200.28   12.30
   1   8   2  197.08   11.40
   1   8   2  201.38   11.60
   1   8   2  177.98   12.40
   1   8   2  189.78   11.00
  -1  -8   2  198.38   15.40
  -1  -9  -2    0.10    1.00
   1   9  -2    0.40    0.50
   1  -9   2   -0.40    1.10
  -1  -9  -2    0.30    1.00
  -1   9   2    0.00    0.80
   1  -9   2    0.00    1.40
   1  -9   2    0.00    1.10
  -1   9   2    0.90    0.60
  -1   9   2    0.70    0.70
   1  -9   2    0.60    0.80
  -1   9   2    0.10    0.80
  -1  -9  -2    0.40    1.10
  -1   9   2    1.00    1.10
  -1  -9   2    1.10    1.20
   1   9   2    0.10    0.70
   1   9   2    0.50    0.60
  -1  -9   2   -0.40    1.40
   1   9   2    0.50    0.60
   1  -9  -2    0.00    1.10
  -1  -9   2    0.40    1.10
   1   9   2   -0.20    0.60
   1  -9  -2    0.90    1.10
   1   9   2   -0.10    0.50
   1  -9  -2    0.10    1.00
   1  -9  -2    0.40    0.90
  -1  -9   2    0.00    2.20
   1   9   2   -0.70    0.80
  -1   0   3    0.10    0.30
  -1   0   3    0.00    0.70
  -1   0   3    0.10    0.60
  -1   0   3    0.10    0.20
   1   0   3    0.30    0.20
  -1   0   3    0.30    0.20
   1   0   3    0.00    0.20
  -1   0   3    0.20    0.30
  -1   0   3    0.10    0.40
   1   0   3    0.30    0.50
  -1   0   3    0.40    0.90
   1   0   3    0.50    0.60
   1   0   3    0.00    0.30
  -1   0   3    0.80    0.60
  -1   1   3 1423.76   75.39
  -1   1   3 1519.45   75.89
  -1   1   3 1463.45   75.89
   1  -1   3 1280.57   74.89
   1  -1   3 1345.57   75.89
  -1   1   3 1569.34   75.89
   1  -1   3 1490.75   75.89
  -1   1   3 1332.07   74.89
  -1   1   3 1501.75   75.39
   1  -1   3 1442.96   75.59
   1  -1   3 1385.86   75.49
  -1   1   3 1438.46   75.19
   1  -1   3 1644.94   75.49
   1  -1   3 1335.87   75.99
  -1   1   3 1429.56   75.79
  -1  -1   3 1246.98   75.69
  -1  -1   3 1598.04   76.19
   1   1   3 1397.96   74.99
   1   1   3 1384.46   75.09
  -1  -1   3 1394.56   75.09
  -1  -1   3 1476.15   76.09
  -1  -1   3 1504.45   76.29
   1   1   3 1541.15   75.69
   1   1   3 1419.46   75.29
   1   1   3 1241.28   75.29
  -1  -1   3 1257.57   75.79
   1   1   3 1509.85   75.19
  -1   2   3 2111.59  107.29
   1  -2   3 1892.01  108.49
   1  -2   3 1881.01  107.69
  -1   2   3 2164.78  107.99
  -1   2   3 1992.10  106.99
  -1   2   3 2104.09  107.29
   1   2  -3 1995.30  107.19
  -1   2   3 2255.67  107.49
   1  -2   3 1851.51  106.99
   1  -2   3 1866.31  108.09
   1  -2   3 1950.20  108.09
  -1   2   3 2294.57  106.89
  -1   2   3 2056.59  107.89
   1   2   3 2074.09  107.49
   1   2   3 2005.40  106.89
  -1  -2   3 2134.09  108.79
   1   2   3 2031.80  107.49
  -1  -2   3 2254.67  108.79
   1   2   3 2002.40  107.19
   1   2   3 2031.10  107.09
   1   2   3 2082.29  107.29
  -1  -2   3 1932.31  108.39
  -1  -2   3 1828.02  108.09
  -1  -2   3 2194.68  107.29
  -1  -2   3 2102.99  108.49
  -1  -2   3 1737.93  108.29
   1   2   3 2203.78  107.79
   1   2   3 2108.49  107.79
   1  -3   3 1675.53   96.99
  -1   3   3 1875.01   96.89
  -1   3   3 1839.22   96.19
  -1   3   3 1819.82   95.89
   1  -3   3 1717.93   96.99
   1   3  -3 1704.73   95.79
  -1   3   3 1935.01   97.09
  -1   3   3 1695.13   95.59
   1  -3   3 1845.12   97.79
   1  -3   3 1902.11   97.19
   1  -3   3 1803.82   97.09
  -1   3   3 1973.10   98.79
   1  -3   3 1833.22   96.19
  -1   3   3 1843.32   96.29
  -1   3   3 1721.43   95.69
  -1  -3  -3 1747.13   96.89
  -1  -3   3 1760.22   97.49
   1   3   3 1888.61   96.29
   1   3   3 1860.71   95.99
   1   3   3 1996.90   97.29
  -1  -3   3 1867.01   97.39
  -1  -3   3 1650.03   97.29
  -1  -3   3 1905.41   97.69
   1   3   3 1825.12   95.69
   1   3   3 1903.81   95.69
   1   3   3 1782.52   96.19
   1   3   3 1821.02   96.29
  -1   4   3  121.49    7.60
  -1   4   3  131.09    7.20
   1  -4   3  131.99    8.70
  -1  -4  -3  122.69    9.20
   1   4  -3  111.09    7.50
  -1   4   3  119.79    7.20
  -1   4   3  126.09    7.90
   1  -4   3  122.69    8.60
   1  -4   3  119.89    8.60
  -1   4   3  126.59    8.40
   1  -4   3   95.79    8.90
   1   4   3  123.69    7.10
  -1  -4   3  130.29    9.40
  -1  -4   3  114.59    8.70
  -1  -4   3  123.59    9.10
   1  -4  -3  108.09    8.80
   1   4   3  128.09    7.80
   1   4   3  123.99    7.70
   1   4   3  120.69    7.30
   1   4   3  115.59    8.80
   1   4   3  122.69    7.80
   1  -5   3  485.65   29.10
  -1   5   3  504.15   28.10
  -1   5   3  536.65   28.30
   1  -5   3  558.64   32.80
  -1   5   3  509.55   28.60
  -1   5   3  521.05   28.00
   1  -5   3  542.15   28.40
  -1   5   3  532.75   28.00
  -1   5   3  553.94   28.20
  -1  -5  -3  503.25   30.80
  -1   5   3  493.95   27.80
  -1   5   3  531.45   28.00
  -1   5   3  513.15   28.10
   1  -5   3  487.25   30.30
   1  -5   3  559.84   29.50
  -1   5   3  496.15   27.90
   1  -5   3  556.34   33.40
  -1   5   3  508.15   27.70
   1  -5   3  555.74   28.90
   1  -5   3  571.44   30.60
  -1   5   3  524.55   28.40
  -1   5   3  522.95   28.30
  -1   5   3  521.55   27.70
  -1   5   3  539.55   27.70
   1  -5   3  478.55   29.80
   1  -5   3  562.84   29.60
   1  -5   3  481.85   29.10
   1  -5   3  534.35   30.00
  -1  -5  -3  441.06   30.10
   1   5  -3  526.75   27.80
   1  -5   3  540.05   30.10
   1  -5   3  496.85   28.40
   1  -5   3  465.55   32.20
  -1   5   3  507.15   27.90
   1  -5   3  557.74   29.80
   1  -5   3  444.46   29.50
  -1   5   3  525.25   28.20
   1  -5   3  514.95   30.00
   1  -5   3  572.44   29.70
   1  -5   3  427.56   30.90
   1  -5   3  454.15   33.50
  -1   5   3  501.95   29.20
   1  -5   3  550.64   30.40
  -1   5   3  535.35   28.80
  -1   5   3  518.65   27.80
   1  -5   3  484.75   28.90
  -1   5   3  524.75   29.60
  -1   5   3  516.65   27.80
   1   5  -3  524.65   27.90
  -1   5   3  499.55   27.60
   1   5   3  495.95   27.90
   1   5   3  574.94   28.90
  -1  -5   3  529.55   30.20
  -1  -5   3  436.56   28.40
   1   5   3  528.85   28.40
  -1  -5   3  525.85   30.90
   1   5   3  538.45   28.20
   1   5   3  507.85   27.70
  -1  -5   3  557.74   29.50
  -1  -5   3  496.15   29.10
  -1  -5   3  531.35   29.00
   1   5   3  496.55   27.90
   1   5   3  509.95   27.50
   1   5   3  521.85   28.10
  -1  -5   3  466.55   34.50
   1   5   3  528.15   27.90
  -1  -5   3  540.15   28.90
  -1  -5   3  565.14   29.00
   1   5   3  511.75   27.70
  -1  -5   3  505.75   30.60
  -1  -5   3  554.24   30.40
  -1  -5   3  460.55   35.80
  -1  -5   3  575.64   31.20
   1   5   3  523.85   28.50
  -1  -5   3  495.35   31.10
   1   5   3  502.35   27.90
   1   5   3  533.05   28.80
   1   5   3  509.85   29.20
  -1  -5   3  484.95   30.30
   1  -5  -3  435.06   29.00
   1   5   3  521.25   28.10
   1   5   3  517.95   28.10
   1   5   3  497.75   27.60
  -1  -5   3  574.04   33.10
  -1  -5   3  554.54   29.50
  -1  -5   3  575.84   35.60
  -1  -5   3  533.45   34.70
   1   5   3  538.15   27.90
   1   5   3  505.05   27.80
  -1  -5   3  451.85   29.50
   1  -5  -3  482.85   30.20
  -1  -5   3  531.45   30.80
   1   5   3  513.25   28.70
   1   5   3  504.05   30.40
  -1  -5   3  517.95   30.10
   1   5   3  530.75   28.70
   1   5   3  577.84   28.40
  -1  -5   3  550.74   28.50
   1   5   3  521.75   27.70
  -1  -5   3  547.75   30.60
   1  -6   3  659.63   39.50
   1  -6   3  669.53   44.90
   1  -6   3  786.22   39.80
   1  -6   3  715.03   39.80
  -1   6   3  706.83   38.60
   1  -6   3  732.63   40.00
   1  -6   3  824.92   41.60
  -1   6   3  722.83   38.50
   1  -6   3  699.03   40.70
   1  -6   3  672.43   40.30
  -1   6   3  653.93   38.30
  -1  -6  -3  667.33   41.30
  -1   6   3  688.13   37.90
   1  -6   3  731.73   39.60
   1   6  -3  690.13   38.10
   1  -6   3  785.02   39.80
  -1   6   3  706.63   38.00
   1  -6   3  789.72   40.90
  -1   6   3  755.42   38.40
  -1   6   3  730.23   39.10
  -1  -6  -3  606.74   40.50
  -1   6   3  762.42   38.40
  -1   6   3  687.03   38.00
   1  -6   3  777.82   39.30
  -1   6   3  704.23   38.70
  -1   6   3  718.33   38.50
  -1   6   3  707.63   38.30
  -1   6   3  707.43   37.90
  -1   6   3  696.03   38.10
   1  -6   3  668.43   43.00
  -1   6   3  693.13   38.20
   1   6  -3  680.53   38.20
  -1   6   3  728.23   38.10
   1  -6   3  654.73   39.20
   1  -6   3  672.63   38.60
  -1   6   3  712.63   40.10
  -1  -6   3  638.34   39.80
   1   6   3  729.43   40.70
  -1  -6   3  686.93   41.20
   1   6   3  762.22   38.90
  -1  -6   3  763.12   39.20
  -1  -6   3  630.64   39.50
   1   6   3  739.73   38.60
   1   6   3  743.53   38.10
  -1  -6   3  647.94   38.80
   1   6   3  744.93   38.70
  -1  -6   3  725.43   41.10
   1   6   3  770.22   39.10
  -1  -6   3  714.63   41.30
   1   6   3  721.73   38.80
   1   6   3  757.52   38.50
  -1  -6   3  790.62   41.30
   1   6   3  740.53   38.20
   1   6   3  716.83   38.00
  -1  -6   3  797.52   43.80
  -1  -6   3  725.03   41.00
   1   6   3  696.83   39.10
  -1  -6   3  733.73   45.30
   1   6   3  747.93   39.60
  -1  -6   3  749.23   40.70
   1  -6  -3  623.14   39.30
   1  -6  -3  635.04   39.50
  -1  -6   3  784.72   38.90
   1   6   3  694.93   38.50
  -1  -6   3  678.03   44.60
   1  -6  -3  691.93   40.90
   1   6   3  703.43   37.90
   1   6   3  690.03   38.00
  -1  -6   3  642.94   46.40
  -1  -6   3  717.13   40.50
  -1  -6   3  697.13   39.50
   1   6   3  715.93   38.20
   1   6   3  717.93   38.40
  -1  -7  -3  565.64   33.10
   1  -7   3  528.65   31.10
  -1   7   3  547.25   30.30
  -1   7   3  546.85   29.70
  -1  -7  -3  471.15   34.70
   1  -7   3  554.54   31.90
  -1   7   3  522.55   29.80
   1  -7   3  610.84   31.10
  -1   7   3  529.25   29.60
   1  -7   3  531.65   31.80
   1  -7   3  596.04   32.00
  -1  -7  -3  525.45   31.50
   1  -7   3  537.55   30.20
  -1   7   3  546.55   30.60
   1  -7   3  561.54   36.60
  -1   7   3  531.25   33.60
   1  -7   3  547.35   30.70
   1  -7   3  540.05   34.40
   1   7  -3  511.25   29.80
   1   7  -3  544.55   29.70
   1  -7   3  553.84   31.00
  -1  -7  -3  530.95   32.40
  -1   7   3  532.85   30.10
   1  -7   3  551.24   30.70
  -1   7   3  509.25   31.50
  -1   7   3  527.35   29.90
  -1  -7  -3  537.85   31.30
  -1   7   3  560.74   29.90
  -1   7   3  538.15   30.10
  -1   7   3  522.05   29.70
  -1   7   3  540.95   29.60
   1  -7   3  540.65   30.90
   1  -7  -3  546.05   31.10
  -1  -7   3  615.14   35.80
  -1  -7   3  532.55   30.70
   1   7   3  564.24   30.20
  -1  -7   3  567.94   31.60
   1  -7  -3  481.75   31.60
   1   7   3  557.54   29.70
  -1  -7   3  578.74   31.30
   1  -7  -3  569.84   32.60
   1   7   3  594.94   30.30
   1   7   3  560.44   30.00
   1  -7  -3  523.75   31.20
   1   7   3  544.75   29.80
  -1  -7   3  536.75   30.50
   1   7   3  530.65   30.20
   1   7   3  562.54   30.00
  -1  -7   3  620.74   32.80
   1   7   3  594.04   30.90
  -1  -7   3  595.64   30.60
   1   7   3  597.04   30.50
   1   7   3  542.75   31.90
  -1  -7   3  580.04   32.30
  -1  -7   3  651.13   32.40
   1  -7  -3  548.85   30.90
   1   7   3  576.74   30.00
   1   7   3  557.14   29.60
   1   7   3  556.34   29.70
  -1  -8  -3   39.50    6.50
   1  -8   3   41.60    7.70
  -1   8   3   36.40    4.70
  -1   8   3   37.70    3.30
  -1  -8  -3   46.30    4.50
   1   8  -3   36.00    3.00
  -1   8   3   41.30    3.20
   1  -8   3   39.40    4.40
  -1   8   3   39.50    3.00
  -1   8   3   40.50    3.50
  -1   8   3   40.50    3.00
   1  -8   3   42.30    3.50
  -1  -8  -3   36.30    5.20
   1   8  -3   36.70    2.90
   1  -8   3   42.70    3.90
   1  -8   3   43.60    3.80
  -1  -8  -3   39.90    3.80
  -1   8   3   41.00    3.20
  -1   8   3   39.00    2.80
   1  -8   3   39.10    4.40
  -1  -8  -3   40.20    4.40
   1  -8   3   39.60    5.80
  -1  -8   3   45.60    3.50
   1  -8  -3   48.10    4.40
   1   8   3   41.10    3.00
   1   8   3   37.90    3.30
   1   8   3   38.40    3.00
  -1  -8   3   38.20    4.20
   1   8   3   40.30    2.90
   1  -8  -3   42.30    4.20
  -1  -8   3   40.00    3.90
   1  -8  -3   40.70    3.80
  -1  -8   3   43.30    8.60
   1  -8  -3   42.50    3.40
   1   8   3   39.00    3.20
  -1  -8   3   40.30    4.70
   1   8   3   39.10    2.90
  -1  -8   3   46.20    4.30
   1   8   3   37.80    3.20
   1   8   3   37.70    3.40
   1  -8  -3   38.80    3.50
   1  -8  -3   40.10    4.60
  -1  -8   3   37.80    6.00
   1   0   4 1660.13   83.89
   1   0   4 1403.86   83.69
   1   0   4 1506.75   82.99
  -1   0   4 1746.23   83.39
  -1   0   4 1781.72   84.29
   1   0   4 1616.34   83.19
   1   0   4 1491.15   82.89
  -1   0   4 1602.04   82.89
  -1   0   4 1561.74   83.09
  -1   0   4 1547.85   83.59
  -1   0   4 1493.65   84.09
  -1   0   4 1426.16   84.19
   1   0   4 1677.23   83.19
   1  -1   4 1933.31  112.19
  -1   1   4 1884.21  110.79
  -1   1   4 2286.47  112.09
  -1   1   4 2187.28  111.09
  -1   1   4 2069.39  112.19
   1  -1   4 2126.59  111.29
   1  -1   4 1938.81  110.79
   1  -1   4 2116.59  111.99
  -1   1   4 2309.17  112.09
  -1   1   4 1968.10  111.89
  -1   1   4 2266.87  111.49
   1  -1   4 1947.91  111.99
   1   1   4 2050.79  110.89
  -1  -1   4 2004.10  111.89
  -1  -1   4 2065.49  111.99
  -1  -1   4 2183.58  110.99
  -1  -1   4 2071.49  112.59
   1   1   4 2356.86  111.69
   1   1   4 1908.41  111.39
   1   1   4 2064.19  111.09
   1   1   4 2177.88  111.19
  -1  -1   4 2315.07  111.49
   1   1   4 2177.48  111.29
   1   1   4 2159.18  111.69
  -1  -1   4 2053.29  112.29
  -1  -1   4 2311.77  112.39
  -1   2   4   87.89    6.50
  -1   2   4   99.79    5.10
   1  -2   4   85.29    6.40
  -1   2   4   92.49    6.30
   1   2  -4   82.59    5.40
  -1   2   4   91.29    5.50
  -1   2   4   99.29    5.90
  -1   2   4   97.49    5.60
   1  -2   4   88.09    6.00
  -1   2   4   99.19    6.50
   1  -2   4   83.29    6.50
   1  -2   4   80.79    6.70
   1  -2   4   82.59    5.30
  -1   2   4   88.29    5.30
  -1  -2   4   86.89    6.90
  -1  -2   4  101.79    5.50
  -1  -2   4   90.19    6.80
  -1  -2   4   91.99    6.90
   1   2   4   91.99    5.50
   1   2   4   90.19    5.30
   1   2   4   93.59    6.20
   1   2   4   87.59    5.50
  -1  -2   4   85.09    7.10
  -1  -2   4   75.59    6.70
   1   2   4   89.29    5.80
  -1  -2   4   85.09    6.70
   1   2   4   90.29    5.60
  -1   3   4  708.03   35.60
   1  -3   4  637.74   37.20
  -1   3   4  737.23   35.50
   1  -3   4  626.84   37.70
   1  -3   4  657.13   37.20
   1  -3   4  674.33   37.00
  -1  -3   4  605.84   37.40
   1   3   4  668.23   35.60
   1   3   4  658.13   35.50
   1   3   4  637.84   35.80
   1   3   4  740.83   37.40
   1   3   4  654.73   36.40
   1   3   4  665.13   36.30
  -1  -3   4  618.34   37.80
  -1  -3   4  668.73   37.90
   1   3   4  679.43   36.10
  -1  -3   4  686.13   37.90
  -1  -4  -4  155.48   11.20
  -1   4   4  155.08    8.90
  -1   4   4  148.99    8.80
  -1   4   4  141.59    8.50
  -1   4   4  138.59   10.00
   1  -4   4  140.89   12.10
   1  -4   4  129.69   10.80
  -1   4   4  145.29    8.30
   1  -4   4  147.99   10.20
  -1   4   4  147.89    8.60
  -1   4   4  134.59    8.70
  -1   4   4  164.18   13.30
  -1   4   4  143.09    8.30
   1  -4   4  133.99   12.80
   1  -4   4  130.89    9.50
  -1   4   4  148.79    9.00
   1  -4   4  145.29    9.70
  -1   4   4  146.49    9.30
  -1   4   4  144.49    8.80
   1  -4   4  140.89   10.40
  -1   4   4  145.19    8.70
  -1   4   4  140.99    9.10
  -1   4   4  145.99    8.60
   1  -4   4  167.88    9.60
   1  -4   4  146.39   10.40
   1  -4   4  151.08   10.10
   1  -4   4  155.08   10.90
   1  -4   4  134.29   10.30
   1  -4   4  142.19    9.20
   1  -4   4  133.09    8.70
   1  -4   4  134.29    9.40
  -1   4   4  158.78    8.60
   1  -4   4  131.49    8.80
  -1   4   4  148.49    8.30
   1  -4   4  144.69    9.80
  -1   4   4  142.29    8.30
   1  -4   4  157.58   13.30
  -1   4   4  153.08    8.50
  -1   4   4  142.39    9.30
  -1   4   4  145.39    8.20
  -1   4   4  144.59    8.20
   1  -4   4  146.09   10.40
   1  -4   4  140.49   12.50
   1  -4   4  145.99   10.30
  -1   4   4  149.59    9.10
   1  -4   4  132.19   13.60
  -1   4   4  148.89    8.50
  -1  -4   4  123.09   16.20
  -1  -4   4  150.48    9.90
  -1  -4   4  108.09   11.50
   1   4   4  144.59    8.40
   1   4   4  147.49    9.30
   1   4   4  148.29    8.60
   1   4   4  146.49    8.30
   1   4   4  147.89    8.80
  -1  -4   4  126.29    9.10
  -1  -4   4  132.39   10.30
  -1  -4   4  154.18    9.30
   1   4   4  152.28    9.70
  -1  -4   4  134.09   10.80
  -1  -4   4  139.09    9.60
   1   4   4  144.99    9.30
   1   4   4  141.29    8.90
   1   4   4  142.59    8.30
   1   4   4  141.79    8.20
   1   4   4  154.88    8.60
  -1  -4   4  157.08   10.60
  -1  -4   4  141.19   14.00
   1   4   4  144.89   10.90
   1   4   4  146.59    8.40
  -1  -4   4  127.89   10.70
   1   4   4  150.18    8.10
   1   4   4  148.79    8.70
   1   4   4  154.68    9.10
  -1  -4   4  140.69   10.60
   1   4   4  146.89    9.50
  -1  -4   4  155.88   13.80
   1   4   4  146.69    8.70
  -1  -4   4  130.29   10.80
   1   4   4  138.89    9.90
  -1  -4   4  146.99    9.80
  -1  -4   4  139.39   10.50
  -1  -4   4  151.68   10.50
   1   4   4  141.99    8.30
  -1  -4   4  147.39    9.30
   1   4   4  146.39    8.60
  -1  -4   4  147.59    8.90
  -1  -4   4  164.38   10.60
  -1  -4   4  156.68   11.20
  -1  -4   4  157.38   12.50
   1  -4  -4  124.99   10.30
   1   4   4  144.69    8.30
  -1  -4   4  133.89   11.10
   1   4   4  146.39    8.50
  -1  -4   4  117.99   10.20
   1   4   4  157.88    9.20
   1   4   4  146.09    8.40
   1   4   4  148.09    9.40
  -1  -4   4  137.39   10.10
  -1  -4   4  151.08   11.00
   1  -5   4  942.31   58.19
  -1   5   4 1001.90   52.99
  -1   5   4 1011.50   52.79
  -1   5   4  986.80   52.99
   1  -5   4 1097.49   55.79
  -1   5   4  977.60   54.29
   1  -5   4 1016.50   55.19
  -1   5   4 1029.10   53.39
  -1   5   4 1016.50   53.49
  -1   5   4 1011.60   52.59
   1  -5   4  994.10   57.49
  -1   5   4 1004.10   52.59
  -1   5   4 1080.49   53.19
  -1   5   4  995.00   53.89
  -1   5   4  937.51   52.69
   1  -5   4 1043.20   54.99
   1  -5   4 1035.90   54.49
  -1   5   4  916.91   53.59
   1  -5   4 1090.09   54.89
  -1   5   4 1031.70   53.39
   1  -5   4  993.20   55.19
   1  -5   4 1007.70   53.69
   1  -5   4 1069.99   55.29
  -1  -5  -4  994.60   56.29
   1  -5   4 1109.49   59.49
  -1   5   4  980.40   52.69
   1  -5   4  949.01   55.19
  -1   5   4 1002.00   53.19
  -1   5   4 1075.39   53.29
   1  -5   4  861.11   53.79
   1  -5   4  954.50   53.09
   1  -5   4  920.91   53.29
  -1   5   4  898.11   58.79
   1   5  -4  933.61   52.69
  -1   5   4 1016.50   53.09
   1  -5   4  927.01   53.99
   1  -5   4  957.80   55.19
   1  -5   4  864.31   55.59
   1  -5   4  919.91   59.49
  -1   5   4 1029.00   52.89
   1  -5   4 1009.30   54.29
  -1   5   4  993.70   52.59
   1  -5   4  914.91   54.09
  -1   5   4 1000.70   52.89
  -1   5   4  975.50   54.99
  -1   5   4 1008.50   52.69
  -1   5   4 1013.90   52.59
  -1  -5   4 1017.00   55.29
  -1  -5   4 1050.19   55.59
  -1  -5   4  875.91   56.59
  -1  -5   4  966.80   53.29
   1   5   4  925.41   53.79
  -1  -5   4  912.51   53.89
  -1  -5   4 1016.80   54.29
  -1  -5   4  950.40   55.69
   1   5   4 1008.40   52.69
   1   5   4  926.31   54.09
  -1  -5   4 1111.39   56.19
  -1  -5   4 1009.10   54.49
  -1  -5   4  990.20   55.79
  -1  -5   4 1047.60   55.39
   1   5   4 1002.90   52.99
   1   5   4  998.90   53.49
   1   5   4  979.90   52.59
   1   5   4 1045.50   52.79
   1   5   4 1045.00   53.59
   1   5   4  983.30   52.59
  -1  -5   4 1015.10   56.19
   1   5   4  967.20   54.19
  -1  -5   4  934.21   55.89
  -1  -5   4 1025.00   57.99
   1   5   4 1012.30   52.59
   1   5   4 1008.60   53.09
  -1  -5   4 1121.29   55.29
  -1  -5   4  894.01   54.89
  -1  -5   4 1051.09   53.79
   1   5   4 1007.20   52.59
   1   5   4 1002.70   53.49
  -1  -5   4  865.61   53.49
   1   5   4  994.20   53.99
  -1  -5   4  914.61   54.89
   1   5   4 1004.30   52.79
  -1  -5   4  984.70   53.69
   1  -5  -4  936.81   55.49
   1   5   4 1056.49   53.29
   1   5   4 1013.70   53.09
  -1  -5   4  962.60   59.99
   1   5   4 1035.10   52.99
   1   5   4  937.01   52.69
  -1  -5   4 1046.10   56.29
  -1  -5   4  919.21   62.69
  -1  -5   4 1042.50   53.99
   1   5   4 1047.70   52.89
  -1  -5   4 1042.00   60.49
  -1   6   4   21.60    2.60
  -1   6   4   21.30    2.90
  -1   6   4   19.50    2.40
   1  -6   4   21.60    4.50
   1  -6   4   19.00    3.60
  -1   6   4   18.00    2.10
  -1  -6  -4   16.70    4.30
  -1   6   4   19.80    2.10
  -1   6   4   19.50    2.00
   1  -6   4   19.00    3.70
   1  -6   4   17.50    2.60
  -1  -6  -4   15.90    6.20
   1  -6   4   21.70    3.70
   1   6  -4   18.50    2.00
   1  -6   4   24.10    3.90
  -1   6   4   21.80    2.00
  -1   6   4   22.40    2.00
  -1   6   4   17.10    2.50
   1  -6   4   19.40    3.30
  -1   6   4   21.10    2.20
   1  -6   4   18.70    3.10
  -1   6   4   21.40    2.60
  -1   6   4   17.70    1.80
   1   6  -4   16.70    2.00
  -1   6   4   20.00    2.40
   1  -6   4   22.50    5.30
  -1   6   4   22.20    2.10
  -1   6   4   18.00    2.10
  -1   6   4   17.10    1.80
  -1   6   4   17.60    2.20
  -1   6   4   11.70    2.10
   1  -6   4   20.20    5.30
  -1   6   4   18.30    2.20
   1  -6   4   20.20    5.00
   1  -6   4   23.20    3.60
  -1   6   4   19.50    3.40
  -1   6   4   19.40    1.90
  -1   6   4   20.40    5.60
  -1   6   4   18.80    2.20
  -1  -6  -4   15.10    3.90
  -1  -6   4   16.00    3.00
   1   6   4   21.80    2.50
   1   6   4   10.40    2.30
   1   6   4   18.20    2.00
  -1  -6   4   16.60    6.50
   1   6   4   20.10    2.30
   1   6   4   18.00    2.10
   1   6   4   18.60    2.10
  -1  -6   4   18.30    3.00
  -1  -6   4   18.10    2.90
  -1  -6   4   19.60    4.00
  -1  -6   4   22.50    4.30
  -1  -6   4   19.10    3.90
  -1  -6   4   21.70    3.40
  -1  -6   4   25.10    4.00
   1   6   4   19.40    2.00
   1  -6  -4   19.50    4.10
  -1  -6   4   18.00    4.00
   1   6   4   17.40    1.90
   1   6   4   12.00    2.60
   1   6   4   21.50    2.80
  -1  -6   4   24.30    6.00
  -1  -6   4   23.30    3.80
  -1  -6   4   21.50    4.30
  -1  -6   4   17.50    4.00
   1   6   4   23.40    2.20
   1   6   4   17.40    1.80
   1   6   4   19.00    2.00
  -1  -6   4   15.80    3.30
   1   6   4   23.30    3.40
  -1  -6   4   22.10    6.60
   1   6   4   13.60    2.60
  -1  -6   4   16.70    4.10
   1   6   4   18.70    1.90
   1   6   4   21.10    2.50
   1  -6  -4   19.10    3.50
   1   6   4   20.20    1.80
   1  -6  -4   15.90    3.10
  -1  -6   4   23.20    4.90
  -1  -6   4   19.00    3.70
  -1  -6   4   22.10    3.00
  -1  -6   4   11.20    3.00
   1   6   4   18.70    2.20
  -1  -6   4   17.40    5.60
   1   6   4   20.80    1.90
  -1   7   4  272.37   15.10
  -1  -7  -4  265.57   17.10
  -1   7   4  274.27   15.40
  -1  -7  -4  240.88   17.70
  -1   7   4  258.77   15.10
  -1   7   4  267.97   15.40
  -1   7   4  269.97   15.50
  -1  -7  -4  265.07   16.90
   1  -7   4  304.97   17.30
  -1   7   4  273.77   15.20
  -1   7   4  268.57   15.70
   1  -7   4  285.17   16.60
  -1   7   4  293.97   15.30
   1  -7   4  280.07   17.30
   1  -7   4  296.97   16.50
   1   7  -4  251.37   15.20
   1  -7   4  278.17   16.40
   1  -7   4  288.67   16.50
  -1   7   4  273.57   15.70
  -1   7   4  249.28   17.10
   1  -7   4  301.07   17.50
   1  -7   4  278.27   19.50
  -1  -7  -4  277.57   18.40
  -1   7   4  263.17   15.90
   1  -7   4  279.37   15.80
  -1   7   4  271.47   15.20
   1  -7   4  274.57   16.30
  -1   7   4  250.27   19.00
  -1   7   4  279.77   16.20
  -1   7   4  282.37   15.60
   1  -7   4  287.37   21.50
   1  -7   4  290.37   16.40
  -1   7   4  282.07   15.30
  -1  -7   4  262.37   20.30
  -1  -7   4  289.87   17.80
   1   7   4  274.07   15.40
   1   7   4  268.37   15.10
  -1  -7   4  293.87   22.60
  -1  -7   4  270.17   16.00
  -1  -7   4  288.37   17.70
   1   7   4  291.57   15.70
   1   7   4  243.08   17.30
   1   7   4  246.08   15.60
   1   7   4  264.47   15.20
   1   7   4  268.37   15.50
   1   7   4  283.57   15.50
  -1  -7   4  303.07   16.20
  -1  -7   4  295.67   20.50
  -1  -7   4  276.27   17.40
   1   7   4  272.47   16.40
   1   7   4  283.97   15.30
  -1  -7   4  282.17   17.10
   1  -7  -4  265.47   16.70
   1   7   4  259.77   15.80
   1  -7  -4  288.47   16.60
   1  -7  -4  278.67   16.70
   1   7   4  281.57   15.20
   1   7   4  294.57   16.20
   1   7   4  284.27   15.80
   1  -7  -4  287.37   18.00
   1   7   4  287.57   15.30
  -1  -7   4  288.07   16.80
  -1  -7   4  285.97   17.00
   1   7   4  276.87   15.90
  -1  -7   4  268.67   16.30
  -1   8   4   11.80    1.70
  -1   8   4    6.80    1.00
  -1   8   4    8.20    1.20
  -1   8   4    6.50    1.20
  -1   8   4    7.70    2.30
   1   8  -4    5.60    1.00
   1  -8   4    4.60    2.10
  -1   8   4    9.90    1.40
  -1   8   4    5.60    1.30
  -1  -8  -4    7.90    1.60
   1  -8   4    7.90    1.90
   1  -8   4    7.30    1.70
  -1  -8  -4    8.60    1.90
  -1  -8  -4    7.20    2.30
  -1  -8  -4    8.40    2.20
   1  -8   4    8.10    1.80
   1  -8   4    5.00    2.70
  -1  -8  -4    7.50    2.00
  -1   8   4    6.90    1.10
   1  -8   4    8.90    1.80
   1  -8  -4   10.40    1.90
  -1  -8   4    8.80    2.10
   1   8   4    6.10    1.30
   1   8   4    6.70    1.00
   1   8   4    5.80    1.10
  -1  -8   4    6.70    1.90
   1  -8  -4   13.10    2.10
  -1  -8   4    7.30    2.60
  -1  -8   4    9.50    1.90
   1   8   4    6.80    1.20
   1   8   4    7.20    1.50
   1   8   4    8.50    1.30
  -1  -8   4    6.40    3.40
   1   8   4    6.30    1.40
   1   8   4    7.50    1.00
  -1  -8   4    8.00    1.60
  -1   0   5    0.20    0.80
  -1   0   5   -0.20    1.10
  -1   0   5    1.10    0.60
  -1   0   5    0.20    0.40
   1   0   5    0.20    0.50
   1   0   5   -0.10    0.40
  -1   0   5    0.70    1.20
  -1   0   5    1.10    1.30
   1   0   5    1.70    1.20
  -1   1   5  402.16   22.70
  -1   1   5  431.76   23.50
   1  -1   5  419.26   24.20
   1  -1   5  432.26   24.20
  -1   1   5  474.85   24.50
   1  -1   5  373.46   24.30
  -1   1   5  456.15   23.10
   1  -1   5  404.46   22.90
  -1   1   5  392.96   24.20
  -1   1   5  459.35   22.90
  -1   1   5  379.56   24.40
   1   1   5  436.96   22.80
   1   1   5  429.66   23.10
   1   1   5  441.96   23.30
   1   1   5  439.66   23.20
  -1  -1   5  407.16   24.00
   1   1   5  467.75   22.70
  -1  -1   5  423.16   24.70
  -1  -1   5  383.26   23.40
  -1  -1   5  381.26   24.40
  -1  -1   5  459.45   24.70
  -1  -1   5  391.36   24.90
  -1   2   5  138.59    7.30
   1  -2   5  111.79    8.70
  -1   2   5  134.99    8.80
   1  -2   5  111.09    9.10
  -1   2   5  141.19    7.70
  -1   2   5  141.69    7.00
  -1   2   5  133.39    7.60
  -1   2   5  128.19    8.00
   1   2  -5  112.29    7.40
   1  -2   5  116.89    8.70
  -1  -2   5  123.99    7.40
   1   2   5  119.09    7.90
   1   2   5  126.69    8.40
  -1  -2   5  122.39    9.10
  -1  -2   5  125.29    9.20
  -1  -2   5  105.89    8.90
   1   2   5  121.79    7.60
   1   2   5  125.99    7.30
   1   2   5  118.89    7.40
  -1  -2   5  120.19    9.30
   1  -3   5  218.48   16.80
  -1   3   5  232.98   13.40
   1  -3   5  250.77   14.60
   1  -3   5  241.98   15.40
  -1   3   5  238.88   13.40
   1  -3   5  218.28   15.30
  -1   3   5  244.48   13.80
  -1   3   5  244.38   13.50
  -1   3   5  266.87   13.80
  -1   3   5  235.88   13.30
   1  -3   5  234.38   16.00
  -1   3   5  247.18   13.60
   1  -3   5  245.88   15.60
  -1   3   5  255.17   13.90
  -1   3   5  253.67   14.10
  -1   3   5  237.48   14.40
  -1   3   5  253.17   14.60
   1  -3   5  218.58   14.10
   1  -3   5  230.58   18.90
  -1   3   5  278.77   18.40
   1  -3   5  261.17   18.90
  -1   3   5  246.48   13.80
  -1   3   5  242.28   13.90
   1  -3   5  234.68   15.50
   1  -3   5  225.18   14.00
   1  -3   5  220.08   14.70
  -1   3   5  247.68   14.20
  -1   3   5  254.17   15.50
  -1   3   5  247.28   14.10
   1  -3   5  220.78   14.70
  -1   3   5  258.47   13.60
   1  -3   5  247.48   15.30
   1  -3   5  249.08   17.60
   1  -3   5  230.18   14.90
  -1   3   5  239.88   13.40
   1  -3   5  247.78   15.50
   1  -3   5  231.68   14.50
  -1   3   5  238.08   13.40
  -1   3   5  254.07   13.80
   1  -3   5  238.78   15.20
  -1   3   5  248.38   13.80
  -1   3   5  271.37   14.40
   1  -3   5  247.78   15.80
   1  -3   5  243.38   16.10
  -1   3   5  246.78   14.20
  -1  -3   5  250.37   16.30
  -1  -3   5  218.88   16.40
  -1  -3   5  239.48   15.00
  -1  -3   5  270.17   19.20
   1   3   5  240.58   13.50
  -1  -3   5  227.38   14.80
   1   3   5  250.27   14.10
   1   3   5  251.37   13.70
   1   3   5  235.48   13.40
   1   3   5  252.47   13.90
  -1  -3   5  247.08   14.30
  -1  -3   5  252.97   14.20
   1   3   5  240.28   13.60
  -1  -3   5  234.78   16.40
   1   3   5  239.88   13.40
   1   3   5  247.28   14.00
  -1  -3   5  242.58   20.30
  -1  -3   5  224.88   16.30
   1   3   5  236.68   13.80
  -1  -3   5  252.67   15.80
  -1  -3   5  247.58   13.90
   1   3   5  251.87   13.60
  -1  -3   5  231.18   16.40
   1   3   5  255.17   14.00
   1  -3  -5  209.18   15.40
   1   3   5  239.88   13.70
   1   3   5  247.88   13.30
  -1  -3   5  240.68   15.60
  -1  -3   5  224.08   15.70
  -1  -3   5  214.68   14.40
   1   3   5  263.77   15.60
  -1  -3   5  238.78   15.60
   1   3   5  235.88   13.80
  -1  -3   5  234.28   15.00
   1   3   5  241.78   13.40
  -1  -3   5  239.58   15.60
  -1  -3   5  228.58   15.80
  -1  -3   5  236.28   15.50
   1   3   5  261.07   13.40
   1   3   5  257.27   14.30
  -1  -3   5  270.57   17.90
   1   3   5  242.38   14.30
   1   3   5  237.28   13.50
   1   3   5  246.58   13.60
   1   3   5  230.68   14.50
  -1  -3   5  226.68   20.80
  -1  -3   5  252.07   15.30
   1  -4   5  123.49   12.20
  -1  -4  -5  132.79   10.80
  -1   4   5  119.99    7.10
   1  -4   5  111.99    7.80
   1  -4   5  114.79   10.70
  -1   4   5  119.39    7.80
  -1   4   5  120.49    7.20
   1  -4   5  112.89    8.60
  -1   4   5  109.09    8.10
   1  -4   5  116.59   13.40
  -1   4   5  124.79    9.50
   1  -4   5  126.59   10.10
  -1   4   5  124.89   12.50
  -1   4   5  135.99    8.30
   1  -4   5  124.69    9.50
   1  -4   5   91.19    9.30
  -1   4   5  128.19    7.90
  -1   4   5  123.39    7.50
   1  -4   5  128.09   12.30
  -1   4   5  121.59    7.50
  -1   4   5  119.59    7.80
  -1   4   5  107.49    8.00
  -1   4   5  120.49    7.10
  -1   4   5  120.89    7.60
  -1   4   5  121.29    7.20
   1  -4   5  109.39    7.50
  -1   4   5  133.59    8.10
  -1   4   5  115.99    7.10
  -1   4   5  116.99    7.10
   1  -4   5  112.19    8.60
   1  -4   5  122.39    8.70
   1  -4   5  127.79    9.10
   1  -4   5  116.19    9.40
  -1   4   5  127.89    7.40
   1  -4   5  113.59    8.00
  -1   4   5  123.69    7.50
  -1   4   5  129.49    8.60
   1  -4   5  119.49    8.50
   1  -4   5  125.39    9.60
   1  -4   5  129.79    9.50
   1  -4   5  113.29    9.40
  -1   4   5  118.69    7.60
   1  -4   5  113.39    9.20
  -1   4   5  127.39    7.40
   1   4   5  123.49    7.00
  -1  -4   5  120.49   11.30
   1   4   5  130.19    7.60
   1   4   5  118.39    7.20
  -1  -4   5  127.39    9.60
   1   4   5  116.99    8.50
  -1  -4   5  115.49   10.40
   1   4   5  114.19    7.50
   1   4   5  132.99    7.40
  -1  -4   5  122.09   10.20
  -1  -4   5  120.99   12.60
  -1  -4   5  107.79    8.80
   1   4   5  124.99    7.20
  -1  -4   5  123.69    8.80
   1   4   5  120.29    8.80
   1   4   5  129.99    7.40
   1  -4  -5  109.09    9.60
  -1  -4   5  115.99    9.60
  -1  -4   5  112.49    9.60
  -1  -4   5  125.89    8.20
   1   4   5  123.39    7.70
  -1  -4   5  120.29    8.70
  -1  -4   5  117.09    9.50
   1   4   5  120.59    7.20
   1   4   5  115.59    8.00
   1   4   5  119.99    8.10
   1   4   5  125.99    7.30
  -1  -4   5  115.69   10.00
  -1  -4   5  128.29    9.60
   1   4   5  126.29    8.40
   1   4   5  120.89    7.10
  -1  -4   5  120.59    9.50
   1   4   5  120.19    7.70
  -1  -4   5  108.19   16.20
  -1  -4   5  112.49    8.30
  -1  -4   5  122.49   10.30
   1   4   5  125.39    8.00
  -1  -4   5  123.09   10.40
  -1  -4   5  114.39    8.10
  -1  -4   5  116.49   13.20
   1   4   5  118.69    7.40
  -1  -4   5  123.19    8.90
   1   4   5  110.59    9.90
   1   4   5  116.19    7.10
  -1  -4   5  122.19    7.80
  -1   5   5   11.30    1.50
  -1   5   5    3.90    3.90
  -1   5   5    9.90    1.90
  -1   5   5   12.60    3.40
  -1   5   5   16.30    1.70
  -1   5   5   10.50    1.50
  -1   5   5   13.50    1.70
  -1   5   5   14.50    2.20
   1  -5   5   10.50    2.40
  -1   5   5   12.20    1.70
   1  -5   5    8.60    2.20
  -1   5   5    9.50    1.40
  -1   5   5   13.90    1.80
   1  -5   5    3.00    3.30
   1  -5   5   11.40    2.20
   1  -5   5   18.40    3.40
  -1   5   5   10.60    1.70
   1  -5   5   12.00    5.40
   1  -5   5   14.80    3.40
   1  -5   5   12.50    2.90
  -1   5   5   14.10    2.70
  -1   5   5    9.60    1.80
  -1  -5  -5   11.60    3.90
   1  -5   5   15.80    3.30
   1  -5   5    9.00    4.20
   1  -5   5   16.50    3.50
  -1   5   5   12.00    1.60
   1  -5   5   17.00    3.20
  -1   5   5    7.90    2.00
  -1   5   5   12.30    2.60
   1  -5   5   17.00    3.60
   1  -5   5   12.60    3.00
  -1   5   5    8.00    1.60
   1  -5   5    7.10    2.20
  -1   5   5   12.20    1.70
   1  -5   5   14.50    3.50
   1  -5   5   14.40    4.50
  -1   5   5   13.70    2.60
   1  -5   5   12.70    2.30
   1  -5   5   13.70    3.00
  -1   5   5   14.40    2.00
   1  -5   5   16.00    5.00
  -1   5   5   11.90    1.60
   1  -5   5    9.10    2.90
   1   5   5   13.20    1.60
  -1  -5   5    9.90    2.60
   1   5   5    4.90    2.60
   1   5   5   10.00    1.50
   1   5   5   11.10    1.60
  -1  -5   5    1.70    4.50
   1   5   5   10.70    2.30
   1   5   5   11.70    2.10
   1   5   5   15.60    1.90
  -1  -5   5    8.90    2.50
  -1  -5   5   10.20    2.20
   1  -5  -5   10.60    3.20
  -1  -5   5   13.30    3.30
   1   5   5   13.40    2.00
   1   5   5   14.00    1.90
  -1  -5   5   10.50    2.20
  -1  -5   5   12.80    5.20
   1   5   5   15.20    2.10
  -1  -5   5   12.70    3.30
   1   5   5   11.50    1.60
   1   5   5   13.00    1.70
  -1  -5   5   12.10    3.30
  -1  -5   5   15.10    4.00
   1   5   5    9.30    2.30
  -1  -5   5   12.80    3.60
  -1  -5   5   12.50    5.40
  -1  -5   5   11.70    2.50
  -1  -5   5   16.80    3.00
  -1  -5   5   16.10    4.00
  -1  -5   5   13.30    3.10
  -1  -5   5   12.30    2.70
   1   5   5   11.20    1.50
   1   5   5   16.60    2.40
  -1  -5   5    7.40    6.30
  -1  -5   5   10.30    4.10
  -1  -5   5   13.80    4.00
  -1  -5   5    8.00    3.40
  -1  -5   5   11.90    3.70
  -1  -5   5   11.50    3.70
   1   5   5   13.40    1.70
  -1  -5   5    1.90    3.40
   1  -6   5   20.10    4.20
  -1   6   5   21.40    2.00
  -1   6   5   22.70    2.10
  -1   6   5   25.20    3.10
  -1   6   5   21.80    2.40
   1  -6   5   23.70    3.90
   1  -6   5   20.90    3.20
   1  -6   5   23.50    4.10
  -1   6   5   21.90    2.80
  -1   6   5   18.90    2.20
   1  -6   5   19.80    3.40
  -1   6   5   21.00    2.30
   1  -6   5   22.20    3.60
  -1   6   5   21.70    2.20
  -1   6   5   20.40    2.90
  -1   6   5   22.60    2.50
  -1   6   5   21.70    2.10
   1  -6   5   20.90    3.20
  -1   6   5   23.70    2.40
   1  -6   5   16.90    3.10
   1  -6   5   25.10    4.10
  -1   6   5   23.40    2.10
   1  -6   5   21.20    2.90
   1   6  -5   19.70    2.00
   1  -6   5   16.60    3.50
  -1   6   5   21.90    2.30
  -1   6   5   17.30    5.50
  -1   6   5   19.90    2.60
  -1   6   5   27.10    3.30
   1  -6   5   19.00    3.30
   1  -6   5   23.80    5.70
   1  -6   5   22.40    6.50
  -1   6   5   20.60    2.00
  -1   6   5   21.10    2.50
  -1  -6  -5   17.00    4.20
  -1  -6  -5   20.70    4.40
  -1   6   5   22.60    2.10
   1  -6   5   26.70    4.20
  -1   6   5   20.60    3.50
  -1   6   5   22.20    2.20
   1  -6   5   23.70    5.90
   1  -6   5   17.60    3.10
   1   6   5   23.50    2.70
  -1  -6   5   19.20    6.50
   1  -6  -5   22.50    3.80
  -1  -6   5   24.10    3.80
   1   6   5   23.40    2.40
  -1  -6   5   26.30    4.60
   1   6   5   25.50    2.10
   1   6   5   24.80    2.10
   1  -6  -5   15.40    3.60
  -1  -6   5   21.30    4.20
   1   6   5   23.50    2.20
  -1  -6   5   17.70    2.80
   1   6   5   25.10    2.30
  -1  -6   5   21.90    3.90
   1   6   5   23.30    2.00
  -1  -6   5   24.40    4.50
  -1  -6   5   19.80    3.20
  -1  -6   5   20.40    5.40
   1   6   5   25.60    2.40
   1   6   5   25.60    2.40
  -1  -6   5   21.70    4.30
   1  -6  -5   19.20    3.40
  -1  -6   5   24.00    4.10
  -1  -6   5   27.00    3.20
  -1  -6   5   20.00    3.20
  -1  -6   5   31.30    4.30
  -1  -6   5   25.50    4.50
   1   6   5   21.10    2.10
  -1  -6   5   21.30    6.00
   1   6   5   19.50    3.50
  -1  -6   5   21.20    4.60
  -1  -6   5   18.50    6.00
   1   6   5   24.20    2.80
  -1  -6   5   18.70    3.10
   1   6   5   23.90    2.40
   1   6   5   24.60    2.40
  -1  -6   5   20.60    3.80
   1   6   5   23.80    2.10
   1   6   5   21.30    2.40
  -1   7   5  382.96   21.80
   1  -7   5  391.16   22.70
   1  -7   5  433.26   25.90
  -1   7   5  403.96   21.90
  -1   7   5  387.76   22.30
  -1   7   5  405.96   22.00
   1  -7   5  444.26   23.00
  -1   7   5  408.06   22.20
  -1   7   5  380.36   22.00
   1  -7   5  400.86   22.30
   1  -7   5  415.36   23.00
   1  -7   5  444.36   23.70
   1  -7   5  419.36   23.70
  -1   7   5  411.56   22.40
  -1   7   5  385.26   21.90
  -1   7   5  392.96   22.80
  -1   7   5  393.16   21.80
  -1   7   5  380.36   21.80
   1  -7   5  441.46   23.60
  -1  -7  -5  393.06   23.50
   1  -7   5  414.86   22.90
  -1   7   5  402.36   22.60
  -1   7   5  360.16   22.00
  -1   7   5  391.56   21.90
   1  -7   5  402.06   22.90
  -1   7   5  391.66   25.60
  -1   7   5  354.46   21.90
  -1  -7  -5  354.76   23.80
  -1   7   5  410.36   22.50
   1  -7   5  424.86   27.10
  -1   7   5  393.66   22.20
  -1  -7  -5  411.96   23.50
   1  -7   5  431.96   23.60
   1  -7  -5  446.46   23.20
  -1  -7   5  381.26   22.50
  -1  -7   5  346.97   25.90
  -1  -7   5  423.76   23.20
   1   7   5  394.86   22.50
  -1  -7   5  438.76   23.50
   1   7   5  407.86   22.20
   1   7   5  392.16   21.80
   1   7   5  432.96   22.10
  -1  -7   5  420.66   23.90
  -1  -7   5  469.35   26.50
  -1  -7   5  392.46   22.80
   1   7   5  412.56   21.90
   1   7   5  392.66   22.10
  -1  -7   5  447.06   24.10
   1   7   5  402.06   21.80
   1  -7  -5  414.76   23.20
  -1  -7   5  375.46   22.70
   1   7   5  388.66   21.80
   1   7   5  423.36   21.90
   1   7   5  387.46   22.00
   1   7   5  422.36   22.50
  -1  -7   5  450.95   24.20
   1   7   5  389.46   22.90
   1  -7  -5  421.16   23.10
  -1  -7   5  396.86   23.40
   1   7   5  415.96   22.80
   1   7   5  401.16   21.90
  -1  -7   5  453.55   28.70
  -1  -7   5  405.96   23.30
   1   7   5  386.96   22.00
   1   7   5  397.26   22.40
  -1  -7   5  428.26   22.60
   1   7   5  427.96   22.40
  -1   0   6 1245.58   66.99
  -1   0   6 1169.08   67.19
  -1   0   6 1130.99   69.29
  -1   0   6 1381.76   67.89
   1   0   6 1244.08   67.99
   1   0   6 1197.58   66.59
  -1   0   6 1186.78   66.99
  -1   0   6 1282.47   69.99
  -1   0   6 1268.77   66.79
  -1   0   6 1298.07   67.09
  -1   0   6 1167.98   68.39
  -1   0   6 1326.47   67.09
  -1   0   6 1370.36   66.79
  -1   0   6 1353.76   71.19
  -1   0   6 1367.16   68.99
  -1   0   6 1190.78   68.89
   1  -1   6  257.27   15.90
   1  -1   6  246.68   14.80
  -1   1   6  267.67   15.30
   1  -1   6  251.77   15.10
  -1   1   6  268.47   15.00
  -1   1   6  274.27   15.00
  -1   1   6  272.57   14.60
  -1   1   6  269.67   14.80
   1  -1   6  296.17   16.60
  -1   1   6  256.07   14.30
   1  -1   6  231.78   14.40
   1  -1   6  295.17   19.60
   1  -1   6  252.77   14.60
  -1   1   6  268.07   14.60
  -1   1   6  276.07   14.70
  -1   1   6  273.67   14.80
  -1   1   6  269.97   14.20
  -1   1   6  275.17   16.30
  -1   1   6  265.37   14.30
  -1   1   6  253.97   14.10
   1  -1   6  271.27   19.00
  -1   1   6  265.77   14.60
   1  -1   6  223.98   16.10
  -1   1   6  253.17   14.50
   1  -1   6  290.67   16.40
   1  -1   6  271.37   16.10
  -1   1   6  264.97   14.40
  -1   1   6  273.67   18.10
  -1  -1   6  232.68   15.40
  -1  -1   6  252.47   16.70
   1   1   6  249.88   14.20
  -1  -1   6  246.68   14.90
   1   1   6  219.68   14.10
  -1  -1   6  270.07   17.80
  -1  -1   6  267.87   14.70
   1   1   6  244.38   14.20
  -1  -1   6  257.57   16.40
   1   1   6  232.18   14.10
  -1  -1   6  240.68   16.10
   1   1   6  239.48   13.80
  -1  -1   6  243.58   16.20
  -1  -1   6  229.78   16.10
   1   1   6  261.97   14.60
  -1  -1   6  237.88   16.20
  -1  -1   6  222.48   15.60
  -1  -1   6  234.28   15.50
  -1  -1   6  263.37   14.40
  -1  -1   6  286.87   19.00
  -1  -1   6  271.17   15.50
  -1  -1   6  225.98   16.80
  -1  -1   6  221.98   15.90
   1  -2   6   19.60    3.20
  -1   2   6   21.40    2.50
  -1   2   6   17.70    1.80
  -1   2   6   19.60    2.20
  -1   2   6   18.10    2.50
   1  -2   6   21.50    3.10
  -1   2   6   20.20    2.60
   1  -2   6   20.00    5.20
   1  -2   6   18.10    3.50
   1  -2   6   21.50    2.50
   1  -2   6   23.90    4.30
  -1   2   6   22.30    2.70
  -1   2   6   19.50    1.80
  -1   2   6   22.50    2.60
  -1   2   6   18.70    2.20
   1  -2   6   23.90    4.20
  -1   2   6   21.40    2.30
   1  -2   6   16.90    3.50
   1  -2   6   19.90    3.30
   1  -2   6   18.90    4.10
  -1   2   6   18.90    2.00
   1  -2   6   23.00    3.70
  -1   2   6   19.40    2.20
  -1   2   6   21.30    3.20
   1  -2   6   24.20    3.40
   1  -2   6   15.40    2.70
  -1   2   6   22.70    1.90
  -1   2   6   22.30    2.60
   1  -2   6   20.00    3.50
   1  -2   6   22.40    4.30
   1  -2   6   22.50    5.70
  -1   2   6   19.20    2.10
  -1   2   6   23.30    2.20
  -1   2   6   19.70    2.10
  -1   2   6   23.80    4.60
   1  -2   6   22.30    3.70
  -1   2   6   23.10    2.00
   1   2   6   20.10    2.20
  -1  -2   6   25.80    5.00
  -1  -2   6   17.10    4.90
  -1  -2   6   24.50    4.50
   1   2   6   17.00    1.90
  -1  -2   6   17.80    3.60
  -1  -2   6   18.80    3.20
   1   2   6   16.90    2.00
  -1  -2   6   24.10    5.20
  -1  -2   6   14.90    3.30
   1   2   6   17.80    2.10
   1   2   6   24.80    1.80
  -1  -2   6   13.10    2.50
  -1  -2   6   15.20    3.80
   1   2   6   15.40    2.30
   1   2   6   16.80    1.90
  -1  -2   6   26.00    7.10
   1   2   6   19.60    2.10
  -1  -2   6   18.50    2.50
  -1  -2   6   24.00    4.50
  -1  -2   6   18.00    3.30
  -1  -2   6   20.20    2.20
  -1  -2   6   13.20    3.00
  -1  -2   6   11.20    3.10
   1   2   6   17.20    1.80
   1   2   6   15.20    1.80
  -1  -2   6   21.10    2.50
  -1  -2   6   22.00    4.60
  -1  -2   6   17.30    2.70
  -1  -2   6   16.60    3.50
   1   2   6   16.70    2.40
   1   2   6   16.70    1.90
   1   2   6   17.90    1.90
  -1  -2   6   22.60    4.70
   1   2   6   20.80    1.90
  -1  -2   6   21.80    4.60
   1  -3   6   28.20    4.10
   1  -3   6   35.30    5.40
  -1   3   6   30.70    3.50
   1  -3   6   35.80    6.70
   1  -3   6   40.10    5.50
   1  -3   6   28.50    4.20
  -1   3   6   30.90    2.60
  -1   3   6   29.90    4.20
   1  -3   6   29.40    5.00
  -1   3   6   31.70    2.90
  -1   3   6   32.00    2.90
   1  -3   6   34.60    4.50
   1  -3   6   34.50    5.90
  -1   3   6   32.50    6.00
   1  -3   6   30.70    4.30
   1  -3   6   33.40    4.30
   1  -3   6   37.00    4.00
  -1   3   6   31.10    2.80
  -1   3   6   31.10    3.00
  -1   3   6   33.30    3.40
  -1   3   6   30.60    2.70
  -1   3   6   30.60    2.60
  -1   3   6   31.40    2.60
   1  -3   6   31.00    4.30
   1  -3   6   30.80    3.70
  -1   3   6   31.50    2.60
  -1   3   6   33.00    2.60
   1  -3   6   39.70    4.90
   1  -3   6   22.90    5.10
   1  -3   6   30.80    3.20
   1  -3   6   31.60    3.60
  -1   3   6   33.50    3.20
  -1   3   6   35.20    3.30
  -1   3   6   36.00    3.00
  -1   3   6   33.20    3.60
   1  -3   6   37.40    8.30
  -1   3   6   30.70    2.50
  -1   3   6   31.20    3.20
  -1   3   6   30.80    2.50
   1   3   6   34.80    2.70
  -1  -3   6   32.90    5.10
   1   3   6   28.40    2.80
   1   3   6   31.30    2.70
   1   3   6   30.70    3.00
  -1  -3   6   29.20    4.00
  -1  -3   6   33.50    4.00
   1   3   6   33.40    2.80
  -1  -3   6   32.40    4.70
   1   3   6   33.30    3.50
   1   3   6   29.70    2.50
   1   3   6   33.70    2.50
  -1  -3   6   35.10    5.70
  -1  -3   6   41.80    3.70
   1   3   6   33.40    3.10
  -1  -3   6   32.10    5.20
   1   3   6   29.10    2.60
  -1  -3   6   40.40    5.20
   1   3   6   30.40    2.50
  -1  -3   6   28.20    3.60
  -1  -3   6   28.60    5.30
  -1  -3   6   41.40    5.80
   1   3   6   32.10    2.70
  -1  -3   6   35.40    5.90
   1   3   6   30.70    2.90
  -1  -3   6   36.90    6.30
   1   3   6   34.80    2.90
  -1  -3   6   35.90    6.00
  -1  -3   6   33.70    3.20
  -1  -3   6   32.70    6.30
  -1  -3   6   36.90    6.10
  -1  -3   6   36.60    8.40
  -1  -3   6   30.80    4.80
  -1   4   6   65.09    5.20
   1  -4   6   69.39    6.10
  -1   4   6   66.79    4.40
   1  -4   6   60.99    6.30
  -1   4   6   61.49    9.20
  -1   4   6   71.99    4.60
  -1   4   6   63.39    4.90
  -1   4   6   66.89    5.70
   1  -4   6   81.89    7.30
  -1   4   6   66.69    5.10
   1  -4   6   61.59    9.30
  -1   4   6   72.09    5.60
  -1   4   6   67.99    6.90
   1  -4   6   75.49    6.50
  -1   4   6   70.19    4.70
  -1   4   6   67.59    4.90
   1  -4   6   70.19    6.00
   1  -4   6   62.09    5.00
  -1   4   6   71.99    6.00
   1  -4   6   60.19    5.30
  -1   4   6   66.69    4.50
   1  -4   6   58.29    4.80
   1  -4   6   70.39   11.10
  -1   4   6   66.59    4.60
  -1   4   6   64.89    4.40
  -1  -4  -6   62.89    7.50
   1  -4   6   61.69    6.40
  -1   4   6   62.79    5.20
  -1   4   6   71.79    4.60
  -1   4   6   66.39    4.80
   1  -4   6   60.39    7.50
   1  -4   6   79.99    9.80
  -1   4   6   65.59    4.40
   1  -4   6   62.89    5.90
  -1   4   6   65.79    4.40
   1  -4   6   70.19    7.20
   1  -4   6   63.89    5.90
   1  -4   6   73.29    6.70
  -1   4   6   63.89    4.70
  -1  -4   6   66.19    5.00
  -1  -4   6   62.49    8.10
  -1  -4   6   70.49    7.40
   1   4   6   65.19    4.40
  -1  -4   6   47.60    6.60
   1   4   6   72.39    4.60
  -1  -4   6   56.29    5.30
  -1  -4   6   63.09    7.50
   1   4   6   58.79    5.30
  -1  -4   6   68.99    5.70
  -1  -4   6   70.99    9.50
  -1  -4   6   70.99    7.50
  -1  -4   6   68.49    6.80
   1   4   6   65.99    4.70
   1   4   6   66.19    4.80
   1   4   6   67.39    4.60
  -1  -4   6   62.59    5.80
  -1  -4   6   65.79    7.50
   1   4   6   74.59    5.30
  -1  -4   6   63.69    6.00
   1   4   6   63.99    5.80
  -1  -4   6   66.59    6.10
   1   4   6   65.19    4.40
   1   4   6   64.89    4.40
   1   4   6   65.39    5.00
   1   4   6   71.39    5.40
   1   4   6   64.69    4.50
  -1  -4   6   70.79   10.30
   1   4   6   68.49    4.50
  -1  -4   6   69.09    6.10
   1   4   6   70.59    4.70
  -1  -4   6   60.69    6.80
  -1  -4   6   67.89    6.70
   1   4   6   66.99    5.00
  -1   5   6   35.00    3.00
   1  -5   6   23.80    3.50
   1  -5   6   37.10    4.30
  -1   5   6   29.80    4.70
   1  -5   6   33.00    3.30
  -1   5   6   36.60    2.80
  -1   5   6   34.70    3.50
   1  -5   6   32.50    5.30
   1  -5   6   33.40    4.30
   1  -5   6   43.30    5.00
  -1   5   6   34.70    2.70
  -1   5   6   31.90    3.90
   1  -5   6   37.90    3.70
   1  -5   6   36.40    6.50
  -1   5   6   31.60    2.80
  -1   5   6   32.00    8.10
  -1   5   6   32.10    3.10
  -1   5   6   34.00    3.20
   1  -5   6   34.90    7.90
   1  -5   6   22.80    6.20
  -1  -5  -6   28.20    5.30
  -1   5   6   30.60    2.80
  -1   5   6   34.30    4.10
   1  -5   6   34.70    4.60
  -1   5   6   37.50    3.10
  -1   5   6   37.00    3.00
   1  -5   6   29.70    3.60
  -1   5   6   33.20    2.60
  -1   5   6   35.30    2.80
   1  -5   6   38.90    5.90
   1  -5   6   32.90    4.10
  -1   5   6   31.50    3.80
  -1   5   6   33.10    3.00
  -1   5   6   32.30    3.20
   1  -5   6   40.20    5.10
   1  -5   6   36.80    4.60
  -1   5   6   35.50    2.70
   1  -5   6   35.20    4.20
   1   5   6   31.30    3.20
  -1  -5   6   31.10    3.80
   1   5   6   36.90    3.00
  -1  -5   6   29.60    3.60
   1   5   6   35.30    3.00
  -1  -5   6   37.80    5.30
  -1  -5   6   35.80    8.20
  -1  -5   6   33.40    5.40
  -1  -5   6   35.40    5.60
  -1  -5   6   42.50    6.40
  -1  -5   6   34.60    6.00
   1   5   6   33.40    3.40
   1   5   6   35.20    2.70
   1   5   6   32.00    3.20
   1   5   6   37.30    2.90
  -1  -5   6   34.90    4.30
   1   5   6   26.80    4.60
   1   5   6   33.70    3.10
   1   5   6   35.00    2.70
   1   5   6   34.00    2.80
  -1  -5   6   39.60    4.90
  -1  -5   6   31.70    4.40
   1   5   6   23.20    3.80
  -1  -5   6   31.00    6.50
   1   5   6   36.20    2.80
  -1  -5   6   33.50    5.10
  -1  -5   6   37.90    5.80
  -1  -5   6   42.00    4.00
   1   5   6   33.20    2.70
  -1  -5   6   31.30    3.80
  -1  -5   6   30.50    5.40
  -1   6   6    5.90    1.80
  -1   6   6    5.50    1.40
  -1   6   6    5.60    1.80
  -1   6   6    3.70    1.20
  -1   6   6    4.60    1.10
  -1   6   6    2.70    0.80
  -1   6   6    3.70    1.00
   1  -6   6    5.30    1.40
   1  -6   6    2.50    3.00
  -1   6   6    3.50    1.10
   1  -6   6    3.80    2.00
   1  -6   6    3.90    1.70
   1  -6   6    2.40    3.20
   1  -6   6    3.90    2.00
   1  -6   6    3.40    1.40
   1  -6   6    4.30    1.60
  -1   6   6    3.70    1.20
  -1   6   6    3.00    1.60
   1  -6   6    5.90    2.30
  -1   6   6    3.80    1.00
  -1   6   6    3.70    0.80
   1  -6   6    2.90    1.70
  -1   6   6    4.10    1.30
  -1   6   6    5.00    1.00
  -1   6   6    3.10    0.90
   1  -6   6    0.90    2.00
   1  -6   6    3.90    2.00
  -1   6   6    3.20    0.90
  -1   6   6    4.80    1.10
  -1   6   6    2.90    0.80
   1   6   6    4.60    1.60
  -1  -6   6    5.90    2.50
   1   6   6    1.80    0.70
  -1  -6   6    4.10    2.10
   1   6   6    6.50    1.60
   1   6   6    3.30    1.00
  -1  -6   6    4.00    1.50
  -1  -6   6    1.60    4.30
  -1  -6   6    4.70    3.50
   1   6   6    3.00    0.80
   1   6   6    4.20    1.00
  -1  -6   6    4.40    2.50
   1   6   6    3.70    0.80
   1   6   6    2.60    0.90
  -1  -6   6    3.70    1.50
  -1  -6   6    2.80    2.60
  -1  -6   6    6.90    2.40
  -1  -6   6    4.50    2.10
   1   6   6    4.50    1.00
   1   6   6    3.30    1.10
   1   6   6    5.10    1.20
   1   6   6    1.20    1.90
   1   6   6    5.10    1.00
  -1  -6   6    2.80    2.00
  -1  -6   6    3.40    2.30
  -1  -6   6    5.50    1.90
   1   6   6    2.60    1.30
  -1  -6   6    2.70    2.40
  -1  -6   6    4.30    2.20
   1   6   6    3.30    0.90
  -1  -6   6    4.70    1.50
  -1  -6   6    1.80    2.50
  -1   7   6   24.40    2.00
  -1   7   6   26.10    2.00
  -1   7   6   27.40    2.10
  -1   7   6   26.50    2.50
  -1  -7  -6   26.90    3.30
   1  -7   6   26.10    2.30
  -1   7   6   26.00    2.20
  -1   7   6   25.50    2.30
  -1   7   6   30.70    2.10
  -1   7   6   26.70    2.60
  -1   7   6   26.30    1.90
   1  -7   6   27.80    3.10
   1  -7   6   26.60    3.00
   1  -7   6   32.60    5.40
   1  -7   6   25.50    2.80
   1  -7   6   29.40    2.60
  -1   7   6   26.60    2.20
  -1   7   6   26.30    2.10
  -1   7   6   25.00    2.00
  -1  -7  -6   26.20    3.20
  -1   7   6   25.40    2.40
   1  -7   6   28.40    4.30
   1  -7   6   27.70    2.80
   1  -7   6   26.10    2.60
  -1   7   6   27.40    2.60
   1   7   6   27.30    2.30
   1   7   6   25.40    2.00
   1   7   6   27.80    2.10
   1   7   6   27.90    2.10
   1   7   6   27.40    2.10
   1   7   6   24.20    2.10
   1  -7  -6   28.90    2.80
   1   7   6   26.70    2.00
   1  -7  -6   28.40    2.60
   1   7   6   28.40    2.00
  -1  -7   6   32.10    6.10
   1   7   6   28.20    2.00
  -1  -7   6   31.00    3.00
   1   7   6   27.60    2.60
   1   7   6   29.40    2.10
   1  -7  -6   25.40    2.90
  -1  -7   6   27.00    3.10
  -1  -7   6   27.80    2.70
   1   7   6   29.50    2.00
   1   7   6   25.60    2.30
   1   7   6   27.70    2.00
  -1  -7   6   23.10    4.60
  -1  -7   6   30.90    3.50
  -1  -7   6   26.00    3.30
  -1  -7   6   28.10    2.90
  -1  -7   6   25.70    2.40
  -1   0   7    2.00    1.50
  -1   0   7    1.00    1.10
  -1   0   7    0.40    2.00
  -1   0   7    3.90    1.30
  -1   0   7    1.90    2.20
  -1   1   7 1403.26   69.79
  -1   1   7 1377.16   69.89
  -1   1   7 1432.26   71.19
   1  -1   7 1381.96   71.79
  -1   1   7 1398.46   70.19
  -1   1   7 1430.06   70.29
  -1   1   7 1318.27   72.29
  -1   1   7 1293.37   70.29
  -1   1   7 1388.76   70.19
  -1  -1   7 1300.17   69.99
  -1  -1   7 1255.27   72.39
  -1  -1   7 1241.68   70.49
  -1  -1   7 1369.66   70.59
  -1  -1   7 1405.76   75.49
  -1  -1   7 1169.68   72.59
  -1  -1   7 1316.17   72.19
  -1  -1   7 1160.98   71.79
  -1  -1   7 1206.68   71.29
  -1  -1   7 1152.38   71.39
  -1  -1   7 1370.46   74.19
  -1   2   7  187.58   11.30
  -1   2   7  198.58   11.50
   1  -2   7  185.68   11.90
   1  -2   7  159.38   11.70
   1  -2   7  218.28   16.60
  -1   2   7  197.98   11.50
  -1   2   7  196.48   10.60
  -1   2   7  198.58   11.20
   1  -2   7  196.08   11.30
  -1   2   7  194.88   10.60
   1  -2   7  179.58   12.60
   1  -2   7  192.78   12.00
  -1   2   7  193.68   12.00
  -1   2   7  203.88   11.20
  -1   2   7  187.98   13.20
  -1   2   7  198.08   10.70
  -1   2   7  199.78   11.40
  -1   2   7  185.58   11.00
  -1   2   7  196.98   11.00
   1  -2   7  159.68   11.80
  -1   2   7  201.58   11.80
  -1   2   7  200.68   10.90
  -1   2   7  191.18   10.80
  -1  -2   7  201.18   14.50
  -1  -2   7  180.88   13.50
  -1  -2   7  197.28   13.30
   1   2   7  175.98   10.70
  -1  -2   7  165.38   13.40
  -1  -2   7  190.48   12.40
  -1  -2   7  197.58   13.40
  -1  -2   7  219.68   18.20
   1   2   7  181.98   10.70
   1   2   7  188.18   10.70
  -1  -2   7  157.38   12.20
  -1  -2   7  173.48   10.90
   1   2   7  177.08   10.50
  -1  -2   7  169.08   11.40
   1   2   7  183.38   11.30
   1   2   7  182.78   11.00
   1   2   7  173.18   10.60
  -1  -2   7  167.08   12.20
   1   2   7  183.18   11.10
  -1  -2   7  172.58   14.50
   1   2   7  174.48   10.50
  -1  -2   7  167.18   12.70
  -1  -2   7  167.28   11.40
  -1  -2   7  166.38   15.10
  -1  -2   7  225.18   14.50
  -1   3   7  809.22   40.10
  -1   3   7  772.12   40.30
   1  -3   7  793.12   41.20
  -1   3   7  729.83   39.20
   1  -3   7  787.72   40.20
  -1   3   7  721.93   39.70
  -1  -3  -7  612.64   41.90
   1  -3   7  664.13   40.50
  -1   3   7  730.33   39.60
   1  -3   7  655.93   40.60
  -1   3   7  821.32   40.80
  -1   3   7  818.52   41.30
   1  -3   7  865.21   48.10
  -1   3   7  716.13   42.70
  -1   3   7  708.73   39.30
   1  -3   7  768.62   41.90
  -1   3   7  743.93   39.30
  -1   3   7  773.62   39.60
  -1   3   7  835.92   40.60
  -1   3   7  748.33   40.20
  -1   3   7  710.23   39.20
   1  -3   7  732.23   40.70
  -1   3   7  746.93   39.40
  -1   3   7  700.33   39.90
  -1   3   7  724.33   39.20
  -1   3   7  806.32   40.20
   1  -3   7  712.83   41.60
  -1   3   7  769.72   39.80
   1  -3   7  655.23   41.10
   1   3   7  732.13   39.80
  -1  -3   7  695.63   40.20
   1   3   7  718.93   39.40
  -1  -3   7  781.62   43.50
  -1  -3   7  646.64   42.30
  -1  -3   7  730.33   42.70
   1   3   7  684.83   39.10
  -1  -3   7  760.72   41.00
   1   3   7  789.42   40.10
   1   3   7  762.02   39.60
  -1  -3   7  838.82   43.80
   1   3   7  735.43   39.30
   1   3   7  723.83   39.30
   1   3   7  676.63   40.00
  -1  -3   7  660.63   39.60
   1   3   7  783.72   40.60
   1   3   7  716.53   39.20
  -1  -3   7  821.62   42.60
  -1  -3   7  690.43   41.10
  -1  -3   7  638.04   41.30
  -1  -3   7  687.43   40.80
   1   3   7  711.53   39.40
  -1  -3   7  810.22   43.50
  -1  -3   7  714.13   43.80
   1   3   7  727.83   39.70
   1   3   7  689.33   39.40
  -1  -3   7  687.13   44.90
   1  -4   7   43.70    4.90
  -1   4   7   61.79    4.40
   1  -4   7   53.19    5.40
  -1   4   7   66.79    4.20
  -1   4   7   45.40    6.30
  -1   4   7   53.09    5.40
  -1   4   7   61.99    3.90
   1  -4   7   46.80    4.90
  -1  -4  -7   37.40    6.00
  -1   4   7   58.89    4.60
  -1   4   7   60.79    5.40
   1  -4   7   62.49    6.00
   1  -4   7   54.59   10.10
  -1   4   7   66.09    4.20
   1  -4   7   45.10    6.10
   1  -4   7   57.69    4.60
   1  -4   7   50.99    5.40
  -1   4   7   54.89    5.10
   1  -4   7   53.59    5.70
  -1   4   7   65.69    3.80
  -1   4   7   66.59    3.80
  -1   4   7   55.19    3.90
  -1   4   7   66.19    4.30
  -1   4   7   60.99    3.90
  -1   4   7   69.99    5.10
   1  -4   7   50.99    5.10
   1  -4   7   44.30    4.30
  -1   4   7   69.69    3.90
  -1   4   7   64.59    3.90
  -1  -4   7   50.49    4.70
   1   4   7   49.00    4.30
  -1  -4   7   66.59    7.10
  -1  -4   7   50.69    6.20
  -1  -4   7   47.90    6.20
  -1  -4   7   45.20    5.10
   1   4   7   54.39    3.80
   1   4   7   48.10    4.50
   1   4   7   55.09    4.10
  -1  -4   7   48.60    5.70
   1   4   7   55.09    4.70
  -1  -4   7   58.19    6.10
  -1  -4   7   46.50    4.10
   1   4   7   52.39    3.80
  -1  -4   7   43.10    6.70
   1   4   7   53.29    3.70
  -1  -4   7   62.59    9.60
   1   4   7   52.89    4.00
   1   4   7   54.49    4.20
   1   4   7   53.59    3.80
   1   4   7   50.99    3.70
  -1  -4   7   58.29    6.80
  -1  -4   7   48.10    5.20
  -1  -4   7   45.80    7.30
  -1  -4   7   58.29    5.40
  -1  -4   7   57.79    7.10
   1  -5   7   34.80    3.30
   1  -5   7   39.20    3.90
  -1   5   7   36.00    2.80
  -1   5   7   33.60    2.60
  -1   5   7   34.00    2.80
  -1   5   7   28.90    2.50
  -1   5   7   34.90    3.30
  -1   5   7   35.10    2.80
   1  -5   7   37.00    3.20
   1  -5   7   34.30    8.20
   1  -5   7   26.40    3.20
   1  -5   7   37.90    3.90
   1  -5   7   37.40    4.10
  -1   5   7   32.80    2.60
  -1   5   7   22.90    3.70
  -1   5   7   35.90    2.60
   1  -5   7   30.80    3.80
  -1   5   7   36.70    2.60
  -1   5   7   33.60    3.10
  -1   5   7   28.40    3.90
  -1   5   7   34.70    2.90
  -1   5   7   34.50    3.50
   1  -5   7   33.10    4.10
  -1   5   7   34.80    2.60
   1   5   7   29.10    3.10
  -1  -5   7   32.70    4.00
   1   5   7   34.60    2.90
   1   5   7   37.10    2.60
  -1  -5   7   41.80    5.20
   1   5   7   37.90    2.60
  -1  -5   7   35.20    3.00
   1   5   7   38.70    2.90
   1   5   7   36.60    2.60
  -1  -5   7   35.50    4.00
  -1  -5   7   36.60    5.30
  -1  -5   7   35.20    4.40
  -1  -5   7   37.30    7.40
  -1  -5   7   33.40    5.70
  -1  -5   7   31.40    5.10
   1   5   7   35.90    2.80
  -1  -5   7   28.70    3.30
  -1  -5   7   38.40    5.00
   1   5   7   32.50    2.60
   1   5   7   37.30    2.60
  -1  -5   7   35.70    4.50
   1   5   7   36.00    3.30
  -1  -5   7   36.80    3.70
  -1  -5   7   32.80    3.60
  -1   6   7  133.99    7.20
   1  -6   7  126.49    7.60
  -1   6   7  128.09    7.20
  -1   6   7  128.59    7.80
   1  -6   7  131.89    8.10
  -1   6   7  128.69    7.30
  -1   6   7  126.99    8.00
  -1   6   7  123.79    7.40
  -1   6   7  117.79    7.60
  -1   6   7  131.29    7.50
  -1   6   7  112.19    8.10
   1  -6   7  110.99    7.70
  -1   6   7  129.39    7.30
   1  -6   7  139.59    8.10
  -1   6   7  129.39    7.40
   1  -6   7  152.68   12.20
  -1   6   7  135.19    7.20
  -1   6   7  130.59    7.70
   1  -6   7  133.19    8.00
   1  -6   7  146.39    8.90
  -1   6   7  130.69    7.20
  -1   6   7  122.99    7.20
  -1   6   7  117.49    7.90
   1  -6   7  125.29    8.30
   1  -6   7  137.09    8.20
  -1  -6   7  129.89   10.80
  -1  -6   7  133.69    8.90
  -1  -6   7  131.69    7.80
   1   6   7  128.89    7.20
   1   6   7  128.19    7.30
   1   6   7  135.49    7.30
   1   6   7  129.29    7.20
  -1  -6   7  123.19    7.80
   1   6   7  126.39    7.20
  -1  -6   7  124.79    8.10
  -1  -6   7  110.89    9.30
   1   6   7  121.29    7.30
  -1  -6   7  131.29    8.60
   1   6   7  114.99    7.70
  -1  -6   7  141.59    9.00
  -1  -6   7  141.09    8.80
   1   6   7  114.69    7.40
   1   6   7  130.19    7.30
   1   6   7  127.09    7.60
   1   6   7  130.49    7.20
   1  -6  -7  118.29    7.60
  -1  -6   7  113.09    7.80
   1   6   7  115.09    7.40
  -1  -6   7  128.39    8.10
  -1   2   8  364.96   19.20
  -1   2   8  361.46   18.80
  -1   2   8  362.46   18.40
  -1   2   8  358.56   18.40
  -1   2   8  366.06   18.60
  -1  -2   8  291.07   21.50
  -1  -2   8  323.87   19.80
  -1  -2   8  297.77   18.50
  -1  -2   8  311.97   19.00
  -1  -2   8  306.67   19.90
  -1  -2   8  307.17   20.20
  -1   3   8   83.29    5.40
   1  -3   8   78.29    6.20
  -1   3   8   84.69    6.00
  -1   3   8   90.49    5.70
  -1   3   8   84.89    5.50
  -1   3   8   87.39    5.50
   1  -3   8   77.39    6.20
  -1   3   8   86.99    6.00
  -1   3   8   84.79    5.30
  -1   3   8   86.19    5.10
  -1   3   8   83.49    5.10
   1  -3   8   85.39    6.00
   1   3   8   88.99    5.40
  -1  -3   8   72.89    7.60
  -1  -3   8   74.89    5.40
   1   3   8   80.29    5.20
  -1  -3   8   78.29    6.80
   1   3   8   83.29    5.10
  -1  -3   8   78.59    6.70
   1   3   8   83.89    5.20
   1   3   8   89.79    5.80
   1   3   8   86.09    5.10
  -1  -3   8   77.49    6.50
  -1  -3   8   75.39    5.80
   1   3   8   86.69    5.50
   1  -4   8    0.00    1.00
  -1   4   8    0.90    0.60
  -1   4   8    0.30    0.80
  -1   4   8   -0.80    0.70
   1  -4   8    0.30    1.30
  -1   4   8   -1.80    1.00
  -1   4   8    0.50    0.60
   1  -4   8   -0.50    1.40
  -1   4   8    0.80    0.80
   1  -4   8   -0.50    1.40
  -1   4   8    1.30    0.60
   1  -4   8   -0.30    1.20
  -1   4   8   -0.50    0.80
  -1   4   8    0.20    0.80
   1   4   8   -0.50    0.60
  -1  -4   8    2.30    1.80
  -1  -4   8    0.70    1.70
   1   4   8    0.50    0.90
   1   4   8   -0.30    0.60
   1   4   8    0.80    0.60
   1   4   8    0.50    0.90
  -1  -4   8   -0.30    1.20
   1   4   8   -0.20    0.50
  -1  -4   8    3.70    1.10
  -1  -4   8    1.10    1.50
  -1  -4   8   -3.70    2.30
  -1  -4   8   -0.10    1.50
   1   4   8    0.10    0.70
   1   4   8   -0.20    1.00
   1   4   8   -0.10    0.50
   2   0   0 6859.61  356.36
   2   0   0 6257.77  354.06
  -2   0   0 7331.07  357.36
  -2   0   0 6498.55  356.36
   2   1   0    0.40    0.30
   2  -1   0    0.10    0.40
  -2  -1   0    0.10    0.70
   2   1   0    0.30    0.50
  -2  -1   0    0.20    0.40
  -2   1   0    0.20    0.50
   2  -1   0   -0.10    0.50
  -2   1   0    0.50    0.70
   2   2   0 8172.58  412.56
  -2  -2   0 8826.02  414.76
   2   2   0 7667.83  416.06
   2  -2   0 7853.11  416.76
  -2   2   0 8153.58  415.76
   2   2   0 8417.36  416.76
   2   2   0 7539.55  412.96
  -2  -2   0 6987.40  412.06
   2  -2   0 8078.09  413.66
  -2   2   0 8143.09  412.76
   2  -2   0 6690.03  413.36
   2   3   0    0.20    0.30
  -2   3   0    0.20    0.40
   2  -3   0    0.80    0.90
  -2  -3   0    0.00    1.00
   2   3   0    0.20    0.50
  -2   3   0    0.20    0.80
  -2  -3   0    0.80    0.90
   2  -3   0    0.50    0.40
   2  -3   0   -0.20    0.40
   2   3   0    0.10    0.30
  -2   3   0    0.10    0.50
   2   3   0    0.00    0.40
   2  -3   0   -0.30    0.60
   2   3   0    0.70    0.30
  -2  -3   0    0.50    1.00
  -2   4   0  785.72   39.50
  -2  -4   0  621.04   39.60
  -2   4   0  728.43   38.80
   2  -4   0  709.43   38.20
  -2  -4   0  719.73   39.70
  -2  -4   0  692.73   40.20
   2  -4   0  692.83   39.50
   2   4   0  750.22   38.30
  -2  -4   0  744.93   40.20
   2   4   0  735.23   39.20
   2   4   0  738.03   38.60
  -2  -5   0   -1.20    1.60
   2   5   0    3.00    1.00
  -2   5   0    0.20    0.70
   2   5   0    2.90    1.30
  -2  -5   0   -0.30    1.10
   2  -5   0    0.50    0.90
  -2  -5   0    0.00    1.70
  -2   5   0    0.30    1.30
   2  -5   0    0.60    1.10
  -2   6   0   24.40    4.50
   2  -6   0   25.60    3.30
   2   6   0   24.70    3.30
  -2  -6   0   23.00    4.40
   2  -6   0   25.80    2.70
   2  -6   0   30.90    2.80
  -2  -6   0   24.10    4.60
   2   6   0   26.40    2.40
   2  -6   0   26.00    3.00
  -2   6   0   24.60    3.00
   2   6   0   28.10    2.80
  -2  -6   0   28.20    8.70
   2  -6   0   24.80    5.40
  -2   6   0   28.60    2.40
   2  -6   0   22.80    3.80
   2  -6   0   28.30    3.90
  -2  -6   0   31.40    5.20
   2  -6   0   23.70    3.50
   2   6   0   25.00    2.50
   2   6   0   25.00    2.40
  -2  -6   0   30.10    5.10
  -2  -6   0   25.40    3.90
  -2  -6   0   28.30    4.00
  -2  -6   0   21.30    5.80
   2  -6   0   27.10    3.10
   2   7   0    0.60    0.80
  -2  -7   0    0.50    2.00
   2  -7   0   -0.60    1.40
  -2  -7   0    1.20    4.80
   2   7   0    1.10    1.00
   2  -7   0    0.10    1.00
   2   7   0   -0.70    0.70
   2  -7   0    0.60    1.60
  -2   7   0   -0.40    1.10
   2   7   0    0.70    0.90
  -2  -7   0    1.20    1.90
   2  -7   0    0.10    1.20
  -2   7   0    0.20    1.00
  -2  -7   0    0.20    2.70
   2  -7   0    0.50    2.50
   2  -7   0    0.60    1.60
  -2  -7   0    0.00    3.10
   2  -7   0   -0.10    1.30
   2   7   0   -0.70    0.80
  -2  -7   0   -0.30    2.10
  -2  -7   0   -2.80    2.30
  -2   7   0    0.50    0.90
   2   8   0    8.10    1.50
   2  -8   0   11.00    2.20
  -2  -8   0   12.30    4.60
  -2  -8   0    8.90    5.70
  -2  -8   0   10.40    2.80
   2   8   0   10.70    1.40
   2  -8   0    7.40    2.30
   2   8   0    8.60    1.40
   2   8   0    9.50    1.50
   2   8   0    7.40    2.00
   2  -8   0   11.20    1.90
   2  -8   0   10.30    2.60
   2  -8   0   12.00    2.30
  -2  -8   0    8.00    2.20
  -2  -8   0   10.00    3.10
   2  -9   0    0.40    0.90
  -2   9   0    1.20    0.60
   2  -9   0   -0.20    0.80
   2   9   0   -0.70    0.60
   2  -9   0    0.90    1.10
   2   9   0    0.00    0.60
  -2  -9   0   -0.80    1.20
  -2  -9   0   -0.10    1.70
   2   9   0   -0.10    0.50
  -2  -9   0   -0.30    1.10
  -2  -9   0    0.40    1.30
   2   9   0    2.70    0.70
  -2  -9   0   -1.50    3.00
   2   0   1    2.80    0.70
   2   0  -1    1.80    0.60
  -2   1   1 9270.47  460.25
  -2   1   1 8870.31  463.05
   2  -1   1 8673.13  461.95
   2   1  -1 7460.85  457.65
  -2  -1  -1 8988.90  456.55
   2  -1   1 9057.29  459.25
  -2   1  -1 7868.01  458.05
  -2  -1   1 9999.00  463.35
  -2  -1   1 9456.25  459.05
   2  -1  -1 7457.55  458.25
   2  -2   1    1.60    0.80
  -2   2   1    0.70    0.40
   2  -2   1    0.50    0.60
  -2   2   1    1.40    0.60
  -2   2   1    0.70    0.40
  -2   2   1    0.70    0.30
   2  -2   1    0.50    0.50
   2  -2   1    0.60    0.50
   2  -2   1    0.80    0.90
  -2   2   1    0.70    1.00
  -2  -2  -1    0.80    1.00
   2   2  -1    0.80    0.40
   2   2  -1    0.70    0.50
   2  -2   1    0.40    0.50
  -2  -2  -1    0.40    0.90
  -2  -2   1    1.00    0.80
  -2  -2   1    0.40    1.00
   2  -2  -1    0.50    0.60
   2   2   1    1.20    0.40
  -2  -2   1    0.80    1.10
  -2  -2   1    1.30    1.30
   2   2   1    1.90    0.70
   2   2   1    0.80    0.40
  -2   2  -1    0.70    0.50
   2   2   1    0.60    0.30
  -2  -2   1    1.40    1.00
   2   2   1    0.70    0.40
   2  -2  -1    0.80    0.40
  -2   3   1   59.49    5.30
  -2   3   1   51.39    3.20
  -2   3   1   55.49    3.90
  -2   3   1   50.59    3.30
  -2   3   1   49.80    3.60
   2   3  -1   50.09    3.40
   2  -3   1   59.09    4.00
  -2   3   1   50.09    3.30
  -2  -3  -1   46.60    4.50
   2  -3   1   57.79    4.10
  -2   3   1   54.69    4.90
   2  -3   1   49.00    3.40
   2   3   1   50.29    3.20
  -2  -3   1   47.60    4.90
   2   3   1   55.99    4.00
  -2  -3   1   49.10    4.50
  -2  -3   1   41.10    4.70
  -2  -3   1   53.19    4.60
  -2  -3   1   47.50    4.30
   2  -3  -1   44.30    4.00
   2   3   1   50.89    3.10
   2  -3  -1   45.10    3.20
   2   3   1   49.80    3.30
   2   3   1   54.09    3.80
  -2  -3   1   44.80    4.60
   2   3   1   53.59    3.60
  -2  -3   1   62.49    4.40
  -2  -4  -1  140.29   10.30
   2   4  -1  166.38    9.80
  -2  -4  -1  152.58   10.70
  -2   4   1  149.49    9.70
   2  -4   1  174.78   10.00
  -2   4   1  147.59    8.80
   2  -4   1  173.88    9.80
   2  -4   1  163.58   11.30
   2  -4   1  127.79    9.60
  -2   4   1  148.09    9.00
  -2  -4  -1  155.18   10.50
   2  -4   1  179.18    9.90
   2   4  -1  165.98    9.10
   2  -4   1  170.88   10.20
  -2   4   1  163.18    9.60
  -2   4   1  170.68   11.80
  -2   4   1  142.39    8.90
  -2  -4   1  157.18   10.60
  -2   4  -1  174.18   10.00
   2   4   1  155.08    9.70
   2   4   1  146.19    8.70
   2   4   1  152.68    9.00
   2  -4  -1  141.59   10.00
   2   4   1  162.38   10.00
   2  -4  -1  147.09    8.80
  -2  -4   1  147.79   10.50
   2   4   1  161.08    9.30
  -2  -4   1  142.19   10.60
   2   4   1  155.78    8.90
  -2  -4   1  149.39   10.30
   2  -5   1  546.15   30.80
  -2  -5  -1  539.15   32.00
  -2   5   1  553.94   30.60
   2   5  -1  598.84   29.90
   2   5  -1  551.94   30.00
  -2  -5  -1  450.85   32.50
   2  -5   1  546.45   30.90
   2   5  -1  610.34   30.00
  -2  -5  -1  557.14   31.90
   2  -5   1  551.44   31.30
  -2  -5  -1  493.55   31.60
   2   5  -1  537.45   30.80
   2  -5   1  601.54   31.00
  -2   5   1  573.84   33.30
   2   5   1  559.44   29.70
  -2   5  -1  586.44   31.00
  -2   5  -1  524.95   30.20
   2  -5  -1  566.04   29.60
   2   5   1  554.64   31.00
   2   5   1  551.84   30.10
  -2  -5   1  545.95   32.10
  -2  -5   1  547.65   31.60
  -2  -5   1  560.84   31.50
   2  -5  -1  542.45   31.40
   2  -5  -1  483.35   30.30
  -2  -5   1  570.14   32.00
  -2   6   1   77.59    5.20
   2   6  -1   72.19    5.10
   2  -6   1   74.19    6.40
  -2  -6  -1   58.99   12.00
   2   6  -1   69.09    5.90
   2  -6   1   66.69    7.90
  -2   6   1   73.29    4.90
  -2  -6  -1   64.39    7.10
   2  -6   1   72.39    5.10
  -2  -6  -1   57.89    9.10
  -2  -6  -1   70.49    7.20
  -2  -6  -1   70.69    7.00
   2   6  -1   73.09    4.90
  -2   6   1   73.39    4.80
   2   6  -1   72.39    4.70
  -2  -6  -1   73.29    7.00
  -2  -6  -1   63.29    6.40
   2  -6   1   68.39    5.60
  -2   6   1   71.69    5.70
   2  -6   1   70.09    6.30
   2  -6   1   69.79    5.40
  -2  -6  -1   64.09    7.50
   2  -6   1   79.19    6.50
   2   6  -1   73.09    4.70
   2  -6   1   71.49    5.70
  -2  -6   1   74.29    7.40
  -2  -6   1   71.59    7.10
   2   6   1   77.09    5.40
  -2   6  -1   67.69    5.30
   2   6   1   71.39    6.10
   2  -6  -1   67.79    5.50
   2  -6  -1   64.39    6.20
   2  -6  -1   66.29    5.70
   2   6   1   73.29    5.00
   2   6   1   74.09    4.50
   2  -6  -1   67.69    5.00
  -2  -6   1   63.49    9.30
  -2  -6   1   60.49    7.00
   2  -6  -1   87.59    5.50
   2  -6  -1   67.19    5.90
  -2  -6   1   66.59    7.00
   2  -6  -1   77.19    6.60
   2   6   1   72.99    4.50
   2   6   1   73.69    4.80
  -2  -6   1   58.59   12.20
   2   6   1   74.49    4.90
  -2  -7  -1  207.38   15.40
  -2  -7  -1  215.38   14.10
   2  -7   1  215.88   14.50
   2   7  -1  200.58   13.20
  -2   7   1  225.28   14.20
   2   7  -1  232.98   12.90
  -2  -7  -1  229.38   15.30
   2  -7   1  248.78   15.00
   2  -7   1  233.58   14.00
  -2   7   1  239.08   13.00
  -2  -7  -1  202.98   18.40
   2  -7   1  227.38   14.70
  -2  -7  -1  202.98   21.10
  -2   7   1  244.98   13.50
  -2   7   1  225.78   13.10
   2   7  -1  233.08   13.10
  -2  -7  -1  213.88   14.40
   2   7  -1  231.08   12.90
  -2  -7  -1  218.48   15.70
   2  -7   1  226.98   13.40
   2  -7   1  226.08   13.70
   2  -7   1  219.88   16.70
   2   7   1  225.58   13.60
  -2  -7   1  203.28   21.00
  -2  -7   1  222.78   15.60
   2   7   1  234.28   12.90
  -2  -7   1  208.18   17.80
   2   7   1  230.98   12.90
   2  -7  -1  248.88   15.30
   2  -7  -1  248.98   14.20
  -2  -7   1  210.78   14.90
  -2  -7   1  197.78   13.40
   2   7   1  228.08   12.50
   2   7   1  225.38   14.30
   2  -7  -1  234.88   13.30
   2   7   1  230.08   13.00
   2  -7  -1  232.98   14.10
   2  -7  -1  245.98   13.80
  -2  -7   1  241.58   15.80
   2   7   1  220.68   13.10
  -2  -8  -1   31.60    4.90
   2  -8   1   30.60    5.30
  -2   8   1   32.00    2.60
   2   8  -1   34.10    2.90
  -2  -8  -1   29.90    3.70
   2   8  -1   31.70    2.70
   2  -8   1   29.40    2.90
   2   8  -1   33.70    3.80
   2  -8   1   33.50    4.10
  -2  -8  -1   23.80    5.60
  -2   8   1   31.20    2.80
  -2  -8  -1   29.30    7.40
  -2   8   1   28.60    2.90
   2  -8   1   30.60    3.40
   2  -8   1   32.40    3.50
  -2  -8  -1   33.10    5.10
   2   8  -1   32.00    2.80
  -2  -8  -1   30.00    3.90
   2  -8   1   31.10    4.20
  -2  -8   1   37.30    5.00
   2   8   1   29.00    2.80
   2   8   1   30.10    2.40
   2  -8  -1   34.50    3.80
   2   8   1   27.40    2.50
   2  -8  -1   31.60    4.10
   2  -8  -1   33.20    2.90
  -2  -8   1   30.10    7.50
   2   8   1   32.10    2.90
  -2  -8   1   35.80    6.60
   2   8   1   29.50    3.50
  -2  -8   1   36.60    4.60
   2  -8  -1   31.90    3.20
   2  -8  -1   32.40    3.70
  -2  -8   1   29.70    3.10
  -2  -8   1   33.60    4.20
   2   8   1   30.50    2.70
   2  -8  -1   35.80    4.40
   2   9  -1    2.30    0.70
   2   9  -1    1.50    0.70
  -2  -9  -1    3.40    1.60
  -2   9   1    0.70    0.60
   2   9  -1    2.00    0.80
   2  -9   1    2.90    1.40
  -2   9   1    1.20    1.30
  -2   9   1    1.70    0.70
  -2  -9  -1    4.10    2.20
  -2  -9  -1    3.60    1.40
   2  -9   1    1.70    0.90
   2  -9   1    1.00    0.90
  -2  -9   1    1.20    1.30
  -2  -9   1    1.70    2.50
   2   9   1    0.80    0.50
   2   9   1    1.70    0.70
   2   9   1    1.90    0.70
  -2  -9   1    1.00    1.30
   2  -9  -1    1.50    1.00
  -2  -9   1    2.70    1.90
   2   9   1    2.20    0.80
   2   9   1    2.10    0.80
   2  -9  -1    0.90    0.90
   2  -9  -1    0.60    1.00
   2   9   1    2.30    0.90
  -2   0   2   81.69    5.30
   2   0   2   90.19    5.10
  -2   0   2   80.49    6.20
   2   0   2   87.09    5.50
   2   0   2   91.49    5.60
  -2   0   2   77.99    5.40
   2   0   2   93.49    5.40
   2   0   2   79.79    4.90
  -2   0   2   90.29    5.60
   2   0   2   86.69    5.00
  -2   0   2   96.99    5.20
   2   0   2   88.29    5.10
  -2   0   2   93.09    5.60
   2  -1   2 6904.41  361.56
  -2   1   2 7346.67  362.26
   2  -1   2 6259.27  358.76
  -2   1   2 7024.40  360.66
  -2   1   2 6762.72  364.76
  -2   1   2 6722.83  359.86
   2  -1   2 6590.14  360.86
   2  -1   2 6937.91  362.76
  -2   1   2 6977.40  358.36
  -2   1   2 6706.73  358.66
   2  -1   2 6285.07  363.16
   2  -1   2 6243.48  358.46
  -2   1   2 6625.74  359.56
  -2   1   2 6980.10  358.96
   2   1   2 7171.58  360.36
  -2  -1   2 6894.71  360.46
   2   1   2 5923.51  359.06
  -2  -1   2 7472.25  362.76
  -2  -1   2 7177.68  358.66
  -2  -1   2 6884.21  358.46
   2   1   2 6473.75  361.66
   2   1   2 6396.56  358.56
  -2  -1   2 7892.61  363.96
   2   1   2 7715.53  361.86
   2   1   2 6713.63  358.86
  -2  -1   2 7600.84  361.36
   2   1   2 6175.48  358.46
  -2  -1   2 6439.36  358.46
   2  -2   2  321.47   18.50
   2  -2   2  320.87   18.40
   2  -2   2  287.07   18.20
  -2  -2  -2  361.86   18.90
   2  -2   2  317.37   17.80
   2  -2   2  289.17   18.70
   2   2  -2  323.97   17.80
  -2   2   2  330.27   17.90
  -2   2   2  358.26   18.70
  -2   2   2  326.57   19.80
   2  -2   2  348.07   18.30
  -2   2   2  328.37   17.80
  -2   2   2  355.66   18.30
  -2   2   2  343.57   18.40
  -2   2   2  325.97   17.70
  -2   2   2  361.76   20.10
   2   2   2  338.87   18.10
   2   2   2  328.57   17.80
  -2  -2   2  357.16   19.00
   2   2   2  342.87   17.80
  -2  -2   2  294.67   19.40
   2   2   2  321.07   17.60
  -2  -2   2  281.27   18.90
   2   2   2  355.26   18.20
  -2  -2   2  346.77   19.20
   2   2   2  349.87   18.70
   2   2   2  342.07   18.50
  -2  -2   2  324.27   19.20
   2   2   2  312.37   17.60
  -2  -2   2  333.27   18.30
  -2  -2   2  338.77   18.70
   2   2   2  304.87   17.80
  -2  -2   2  283.97   19.10
  -2  -2   2  339.37   19.40
   2   3  -2    4.20    0.90
  -2   3   2    5.70    1.00
   2  -3   2    5.50    1.40
  -2   3   2    5.10    1.00
   2  -3   2    3.70    1.60
   2  -3   2    8.10    1.80
  -2   3   2    4.70    1.20
   2  -3   2    4.50    1.50
   2  -3   2    6.00    1.60
  -2   3   2    4.70    0.80
   2  -3   2    3.50    1.20
  -2   3   2    5.60    1.30
  -2  -3   2    4.40    1.90
  -2  -3   2    3.70    1.70
   2   3   2    6.10    0.90
   2   3   2    6.60    0.90
   2   3   2    5.30    0.90
  -2  -3   2    3.70    1.90
  -2  -3   2    5.50    1.70
  -2  -3   2    4.10    2.00
   2   3   2    6.50    1.40
   2   3   2    7.90    1.40
   2   3   2    5.40    1.10
   2   3   2    5.80    0.70
  -2  -3   2    5.00    1.70
  -2  -4  -2   92.19    7.30
   2   4  -2   92.39    5.80
  -2  -4  -2   93.59    7.50
   2  -4   2  102.59    6.90
   2  -4   2   93.19    7.00
   2  -4   2  107.49    6.90
   2  -4   2   86.49    7.70
  -2  -4  -2   89.69    7.40
   2  -4   2   75.99    6.50
   2   4  -2   95.09    6.40
  -2  -4   2   91.29    7.30
  -2  -4   2   90.39    7.80
   2   4   2   90.19    5.50
   2   4   2  108.79    6.60
   2   4   2   94.09    5.80
  -2  -4   2   95.19    7.60
  -2  -4   2   98.19    7.40
   2   4   2   72.79    6.90
   2   4   2   95.99    5.80
   2   4   2   94.09    6.80
   2   4   2   99.19    6.20
   2  -5   2  614.44   32.90
   2  -5   2  635.64   37.60
  -2   5   2  579.04   31.50
   2  -5   2  641.54   33.70
   2  -5   2  656.53   32.70
  -2  -5  -2  560.74   34.30
   2  -5   2  630.14   33.00
   2   5  -2  580.64   32.00
   2  -5   2  649.04   33.10
   2  -5   2  599.74   33.30
   2  -5   2  645.84   33.20
  -2   5   2  584.54   31.90
  -2   5   2  595.24   31.90
   2   5  -2  566.54   32.80
   2  -5   2  695.73   34.20
  -2   5   2  591.74   32.10
  -2  -5  -2  530.95   34.40
  -2   5   2  601.94   31.70
  -2   5   2  590.84   33.00
  -2   5   2  602.44   31.80
   2   5  -2  603.04   31.70
  -2   5   2  579.34   31.60
  -2   5   2  500.05   32.90
  -2  -5  -2  554.64   34.00
   2   5  -2  601.84   31.90
   2  -5   2  632.14   33.10
  -2   5   2  611.64   32.30
   2  -5   2  599.54   33.60
   2  -5   2  519.55   35.10
   2  -5   2  596.84   32.80
   2  -5   2  512.65   33.10
  -2   5   2  606.84   31.70
  -2  -5  -2  571.74   33.90
   2   5  -2  596.94   31.70
   2  -5   2  642.04   33.80
  -2  -5  -2  491.45   39.30
   2  -5   2  569.54   32.80
  -2   5   2  630.04   31.90
   2  -5   2  634.14   33.90
  -2   5   2  603.44   31.80
  -2   5   2  621.34   32.20
  -2   5   2  536.25   31.70
   2  -5   2  616.64   32.70
   2  -5   2  615.74   35.80
  -2   5   2  517.65   32.00
   2  -5  -2  517.85   32.70
   2  -5  -2  618.14   32.00
  -2  -5   2  569.24   32.80
  -2  -5   2  611.44   34.30
   2   5   2  583.64   33.50
  -2  -5   2  551.74   34.80
  -2  -5   2  631.84   34.30
  -2  -5   2  561.64   34.70
  -2  -5   2  550.94   38.00
   2   5   2  624.44   34.00
   2   5   2  594.74   31.70
   2   5   2  517.55   32.90
  -2  -5   2  632.14   32.30
   2   5   2  611.14   31.90
   2   5   2  590.74   31.60
   2   5   2  669.33   32.20
   2   5   2  606.14   32.60
   2   5   2  581.34   31.50
  -2  -5   2  594.94   34.50
  -2  -5   2  641.14   38.90
   2   5   2  606.04   32.30
  -2  -5   2  596.84   35.80
   2   5   2  611.14   32.00
  -2  -5   2  626.74   34.20
   2   5   2  597.74   32.20
  -2  -5   2  613.84   39.30
   2  -5  -2  562.74   33.60
   2  -5  -2  499.45   32.40
  -2  -5   2  600.64   34.90
   2   5   2  513.45   31.70
   2  -5  -2  507.95   32.50
   2   5   2  606.74   32.00
   2   5   2  638.14   32.50
  -2  -5   2  614.04   34.40
  -2   6   2   60.39    4.00
   2  -6   2   56.09    5.70
   2  -6   2   56.79    4.80
  -2   6   2   57.69    4.30
  -2   6   2   55.79    3.90
  -2   6   2   57.49    4.20
   2  -6   2   62.39    5.30
   2  -6   2   59.29    8.70
  -2   6   2   54.79    5.20
   2   6  -2   59.79    4.00
  -2   6   2   58.29    4.60
  -2  -6  -2   55.59    6.50
  -2   6   2   57.69    4.00
   2  -6   2   65.39    5.90
   2  -6   2   61.39    5.10
  -2  -6  -2   44.80    8.90
  -2  -6  -2   52.39    6.80
  -2   6   2   58.09    4.10
   2   6  -2   58.09    4.10
   2  -6   2   59.09    5.10
   2  -6   2   62.89    5.30
   2  -6   2   58.99    5.80
  -2   6   2   58.29    4.20
   2   6  -2   56.89    4.00
  -2  -6  -2   54.99    7.00
   2  -6   2   52.99    5.40
   2  -6   2   62.29    7.80
   2   6  -2   55.49    4.30
   2  -6   2   59.59    4.90
  -2  -6  -2   55.09   12.20
   2   6   2   61.49    5.60
   2   6   2   54.09    4.10
   2   6   2   56.29    4.20
   2  -6  -2   56.89    5.10
   2   6   2   61.29    4.60
  -2  -6   2   56.29    6.00
  -2  -6   2   58.09    6.40
  -2  -6   2   50.59    8.80
  -2  -6   2   62.49    7.40
  -2  -6   2   51.19    4.90
   2  -6  -2   55.29    5.30
  -2  -6   2   60.79    9.40
  -2  -6   2   56.69    6.70
   2  -6  -2   50.09    5.60
   2  -6  -2   56.99    5.90
   2  -6  -2   58.29    4.10
   2   6   2   59.69    4.40
  -2  -6   2   61.19    6.80
   2   6   2   56.09    3.70
   2   6   2   58.39    4.70
   2  -6  -2   54.49    5.00
   2   6   2   57.69    4.10
  -2  -6   2   54.09    6.40
  -2  -6   2   48.10   11.00
   2   6   2   57.49    4.40
   2   6   2   59.09    4.00
   2  -6  -2   52.99    4.60
  -2  -7  -2  114.09    9.70
   2  -7   2  113.79    7.90
   2  -7   2  127.09    9.00
  -2   7   2  112.89    8.40
  -2  -7  -2  103.29   12.30
   2   7  -2  113.59    7.10
   2  -7   2  114.29    7.90
   2  -7   2  114.49    8.70
  -2   7   2  116.09    7.30
  -2  -7  -2  106.19    8.80
  -2   7   2  119.79    7.70
   2  -7   2  118.19    8.80
  -2   7   2  115.69    7.00
   2  -7   2  114.09    8.10
   2   7  -2  117.39    7.00
  -2  -7  -2  102.29    8.40
   2  -7   2  118.39    7.60
  -2   7   2  121.79    7.40
  -2  -7  -2  105.79    9.90
  -2  -7  -2  102.19    9.60
   2   7  -2  115.29    7.00
   2  -7   2  118.29   10.90
  -2  -7  -2  102.69   15.10
  -2   7   2  113.29    7.00
  -2  -7   2  109.49    9.10
   2   7   2  116.99    7.30
  -2  -7   2  102.79    7.60
  -2  -7   2  102.99    8.40
  -2  -7   2  105.99   11.60
  -2  -7   2  109.99    9.50
  -2  -7   2  125.39    9.90
   2  -7  -2  115.99    7.90
   2  -7  -2  123.89    7.70
   2  -7  -2  124.09    7.50
   2   7   2  118.99    7.30
   2   7   2  114.99    7.10
   2  -7  -2  122.79    9.20
  -2  -7   2  108.89   14.30
   2   7   2  110.89    6.70
   2   7   2  113.29    7.40
   2   7   2  111.59    8.40
   2  -7  -2  120.19    8.40
   2   7   2  114.99    6.80
   2  -7  -2  113.79    8.10
   2   7   2  114.39    6.70
   2   7   2  108.99    7.80
   2   8  -2   48.90    3.40
  -2  -8  -2   39.80    7.40
  -2  -8  -2   47.60    4.50
  -2   8   2   47.90    3.50
   2   8  -2   46.80    3.50
  -2  -8  -2   42.00    5.50
  -2   8   2   47.50    3.40
  -2   8   2   45.80    3.80
   2  -8   2   48.50    4.80
   2  -8   2   48.30    4.70
  -2   8   2   45.50    3.60
   2  -8   2   44.00    6.10
  -2  -8  -2   48.30    4.70
   2  -8   2   44.90    4.00
   2   8  -2   44.50    3.30
   2  -8   2   48.10    4.10
   2  -8   2   47.80    4.00
  -2  -8  -2   46.60    5.80
  -2   8   2   39.70    5.10
   2  -8  -2   50.49    4.40
   2  -8  -2   50.39    4.00
   2   8   2   47.60    3.60
  -2  -8   2   44.10    4.80
  -2  -8   2   45.60    9.40
   2  -8  -2   46.30    4.80
  -2  -8   2   47.50    6.80
   2  -8  -2   52.59    4.50
   2   8   2   44.80    3.60
   2  -8  -2   49.80    3.50
   2  -8  -2   49.50    3.70
   2   8   2   42.70    3.40
  -2  -8   2   45.70    4.50
   2   8   2   44.90    3.40
  -2  -8   2   43.20    5.10
  -2  -8   2   42.50    3.80
   2   8   2   43.10    3.70
   2   8   2   43.50    3.20
   2   8   2   47.10    3.40
   2   9   2  124.89    7.80
   2   9   2  136.29    7.70
  -2  -9   2  140.59    8.90
  -2   0   3    0.30    0.60
  -2   0   3    0.20    1.00
   2   0   3    0.70    0.50
  -2   0   3    0.00    0.40
  -2   0   3    0.30    0.70
  -2   0   3    0.10    0.40
   2   0   3    1.80    0.70
  -2   0   3    0.60    1.10
   2   0   3    0.60    0.30
  -2   0   3    0.20    0.20
   2   0   3    0.10    0.20
  -2   0   3    0.00    0.80
   2   0   3    0.40    0.30
   2   0   3    1.00    0.40
  -2   1   3   69.39    4.20
   2  -1   3   64.89    4.80
  -2   1   3   69.99    4.80
   2  -1   3   65.49    4.00
  -2   1   3   66.49    4.80
  -2   1   3   60.69    5.50
  -2   1   3   69.29    3.90
   2  -1   3   69.59    4.80
   2  -1   3   56.49    4.80
   2  -1   3   68.59    4.20
   2  -1   3   61.69    4.60
   2  -1   3   64.59    4.50
  -2   1   3   69.39    4.40
   2   1   3   61.29    4.10
  -2  -1   3   72.69    5.10
   2   1   3   65.09    4.00
   2   1   3   66.49    4.00
  -2  -1   3   60.29    5.10
  -2  -1   3   53.69    5.20
  -2  -1   3   61.79    5.60
   2   1   3   69.59    4.20
   2   1   3   66.29    4.50
  -2  -1   3   67.39    4.90
   2   1   3   65.89    4.30
  -2  -1   3   74.09    4.10
   2   1   3   78.99    4.40
  -2  -1   3   77.89    5.00
   2   1   3   73.09    4.30
  -2   2   3  409.56   22.40
   2  -2   3  415.76   23.10
   2  -2   3  445.76   22.80
  -2   2   3  430.46   24.90
  -2   2   3  404.26   22.00
   2   2  -3  405.46   22.20
   2  -2   3  411.16   23.10
  -2   2   3  432.76   23.30
  -2   2   3  350.26   23.70
   2  -2   3  356.66   23.10
   2  -2   3  422.56   22.20
   2  -2   3  393.76   22.80
  -2   2   3  436.36   23.10
  -2   2   3  407.86   22.20
  -2   2   3  429.76   22.60
   2   2   3  428.36   22.30
  -2  -2   3  452.75   22.60
  -2  -2   3  450.45   24.10
   2   2   3  451.75   22.50
  -2  -2   3  452.15   23.90
  -2  -2   3  388.06   24.10
  -2  -2   3  441.26   23.90
   2   2   3  416.76   22.60
  -2  -2   3  382.26   23.50
  -2  -2   3  342.07   23.50
  -2  -2   3  349.37   23.90
   2   2   3  393.86   22.60
   2   2   3  423.26   22.10
   2   2   3  378.86   22.20
  -2  -2   3  423.46   23.50
   2   2   3  402.56   22.00
  -2   3   3 1954.50  101.89
  -2   3   3 2169.78  104.09
   2   3  -3 1865.01  101.89
  -2   3   3 2162.38  102.99
  -2   3   3 2031.10  102.49
  -2  -3  -3 1900.01  103.29
   2  -3   3 1921.91  102.99
   2  -3   3 1939.01  102.99
  -2   3   3 1897.91  101.69
   2  -3   3 1954.50  102.99
   2  -3   3 1593.64  103.19
  -2   3   3 2046.20  106.69
  -2   3   3 1952.10  102.09
   2   3   3 1931.11  101.59
   2   3   3 1959.60  101.79
   2   3   3 2027.30  102.59
  -2  -3   3 1993.60  103.59
   2   3   3 1954.70  101.99
   2   3   3 1995.80  103.49
  -2  -3   3 1716.63  103.49
  -2  -3   3 1899.91  104.39
  -2  -3   3 1951.50  103.89
   2   3   3 1914.31  102.29
  -2  -3   3 1662.63  102.49
   2   3   3 2044.60  103.39
   2   3   3 1852.61  101.89
  -2  -3   3 1945.51  104.09
  -2   4   3  714.13   38.10
  -2   4   3  688.73   39.00
   2  -4   3  718.53   39.60
   2  -4   3  749.62   39.60
  -2   4   3  762.62   38.20
  -2   4   3  691.63   38.50
   2  -4   3  762.62   40.20
   2  -4   3  618.04   40.30
   2   4  -3  691.13   38.20
  -2   4   3  703.93   39.30
  -2  -4  -3  655.13   39.90
  -2  -4   3  743.53   41.10
  -2  -4   3  666.53   40.20
   2   4   3  743.23   38.30
  -2  -4   3  727.43   40.70
   2   4   3  768.72   38.20
   2   4   3  732.63   39.00
   2  -4  -3  596.04   39.40
   2   4   3  707.73   37.90
   2   4   3  728.43   39.00
  -2  -4   3  775.72   40.60
  -2   5   3   95.29    6.00
   2  -5   3  112.09    7.80
  -2   5   3  101.99    6.10
  -2   5   3  100.69    6.70
   2  -5   3   88.69    6.80
   2   5  -3   92.09    6.20
   2  -5   3   98.09    7.10
  -2   5   3   96.29    6.20
  -2   5   3   93.89    5.70
   2  -5   3  103.09    7.40
  -2  -5  -3   95.69    8.80
   2  -5   3  113.49   10.40
  -2   5   3   96.29    5.70
  -2   5   3   95.59    6.30
  -2   5   3   99.79    6.10
  -2   5   3   97.19    6.00
   2  -5   3   89.59    7.70
   2  -5   3  103.39    8.40
  -2   5   3   95.69    5.80
  -2   5   3   96.79    6.10
   2  -5   3   82.09    7.30
   2  -5   3   98.89    6.80
   2  -5   3   87.69    7.30
   2  -5   3   95.89    6.40
   2  -5   3   80.49    8.40
  -2   5   3   97.39    5.80
  -2   5   3   92.69    6.10
  -2   5   3   97.19    6.00
   2  -5   3  120.49    8.10
   2   5  -3   93.69    5.90
   2  -5   3   90.19    7.20
   2  -5   3   82.79    9.00
  -2   5   3   95.79    5.90
   2  -5   3   88.29    7.30
   2   5  -3   97.49    6.10
   2  -5   3   98.79    8.00
  -2   5   3   99.39    5.80
   2  -5   3   91.79   10.60
  -2   5   3   97.49    7.30
  -2   5   3   93.69    6.20
   2  -5   3  110.49    7.80
  -2   5   3  102.99    6.40
  -2   5   3   88.99    7.20
  -2  -5  -3   88.29   14.00
   2  -5   3   92.69    7.70
   2  -5   3  104.19    7.40
  -2   5   3   90.89    6.50
  -2   5   3  103.49    9.40
  -2   5   3   91.79    6.30
  -2   5   3   95.29    6.10
   2  -5   3   97.09    7.60
   2   5   3  100.19    6.90
   2   5   3  103.49    6.00
   2   5   3   88.29    7.00
   2   5   3   96.19    6.20
   2   5   3   97.19    6.20
   2   5   3   93.79    6.10
  -2  -5   3  112.69    8.50
  -2  -5   3   96.79    8.60
   2   5   3  102.49    7.30
  -2  -5   3  105.69    7.10
   2   5   3  101.79    6.20
  -2  -5   3   96.99    7.30
   2   5   3   98.09    5.60
   2  -5  -3   78.69    6.90
   2  -5  -3   91.09    7.90
   2   5   3  102.49    7.00
  -2  -5   3   96.09   12.20
   2   5   3   94.09    6.00
  -2  -5   3  119.29    7.50
   2   5   3   92.09    5.70
   2   5   3   94.79    5.90
  -2  -5   3  103.59   10.10
   2   5   3   97.09    5.80
  -2  -5   3   95.59    8.80
  -2  -5   3  100.89    8.40
   2   5   3   98.99    6.50
  -2  -5   3   94.39    9.60
  -2  -5   3  105.19    7.20
  -2  -5   3  107.69   12.00
   2   5   3  102.79    6.00
  -2  -5   3   92.29    9.00
  -2  -5   3  120.09   14.00
  -2  -5   3  115.09    9.20
  -2  -5   3   78.59    6.70
   2   5   3   96.79    5.80
   2   5   3  100.19    6.70
   2   5   3  101.89    6.10
   2   5   3   94.99    5.70
  -2  -5   3  102.69    8.70
   2   5   3   94.69    5.80
   2  -5  -3   81.19    7.00
   2   5   3  104.99    6.40
  -2  -5   3  102.79    6.60
   2   5   3   93.99    6.10
  -2  -5   3   97.39    8.80
  -2  -5   3   99.39    8.40
  -2   6   3  222.98   12.70
   2   6  -3  221.58   12.60
   2  -6   3  246.58   18.90
  -2   6   3  221.18   13.10
   2  -6   3  254.57   15.40
  -2  -6  -3  178.08   18.00
  -2   6   3  212.78   12.90
  -2   6   3  210.38   14.20
   2  -6   3  223.88   14.60
  -2  -6  -3  215.28   15.90
   2  -6   3  218.98   14.00
  -2   6   3  224.48   12.70
   2  -6   3  220.48   13.60
   2  -6   3  246.68   14.20
  -2   6   3  202.88   13.10
  -2   6   3  217.28   12.90
   2  -6   3  253.87   15.10
   2  -6   3  221.18   13.90
   2   6  -3  213.88   12.60
  -2   6   3  232.18   12.70
  -2   6   3  225.08   13.40
  -2   6   3  225.48   12.70
  -2   6   3  250.47   17.00
   2  -6   3  228.58   14.00
  -2   6   3  221.68   12.60
   2  -6   3  233.48   17.00
  -2   6   3  222.28   12.80
   2   6  -3  216.68   12.70
   2  -6   3  227.58   13.10
  -2   6   3  208.28   12.40
  -2   6   3  217.98   12.50
  -2  -6  -3  201.48   15.50
   2  -6   3  185.78   14.20
   2  -6   3  244.28   14.20
   2  -6   3  236.18   14.90
   2  -6   3  230.58   14.10
  -2   6   3  221.28   12.50
   2   6   3  233.28   12.70
   2   6   3  231.28   12.90
   2   6   3  225.98   13.30
  -2  -6   3  187.68   13.30
   2   6   3  225.48   13.40
   2   6   3  243.98   13.10
   2   6   3  238.38   13.20
  -2  -6   3  230.08   15.10
  -2  -6   3  224.08   19.10
   2  -6  -3  206.88   13.90
  -2  -6   3  200.68   14.40
  -2  -6   3  214.78   13.90
  -2  -6   3  226.48   17.10
  -2  -6   3  218.58   15.80
  -2  -6   3  232.78   19.70
   2   6   3  220.88   12.40
  -2  -6   3  231.88   13.60
   2   6   3  223.28   12.50
   2   6   3  217.48   13.60
   2   6   3  219.98   12.80
   2   6   3  217.08   13.00
  -2   6  -3  238.68   14.70
  -2  -6   3  203.18   20.80
   2  -6  -3  207.48   13.80
  -2  -6   3  222.28   15.70
  -2  -6   3  234.28   13.30
  -2  -6   3  226.88   15.70
   2   6   3  214.18   15.00
   2  -6  -3  223.88   15.00
   2  -6  -3  211.78   13.70
   2   6   3  236.68   12.70
   2   6   3  232.38   13.60
  -2  -6   3  228.38   15.20
   2   6   3  226.08   12.70
   2  -6  -3  230.38   13.00
  -2  -6   3  236.88   15.80
   2  -7   3  897.81   49.00
  -2   7   3  911.11   51.09
  -2   7   3  888.11   47.10
   2   7  -3  872.61   47.30
   2  -7   3  961.30   48.20
   2  -7   3  908.91   48.30
   2  -7   3  969.60   48.40
   2  -7   3  974.60   49.20
   2  -7   3  915.21   47.90
  -2   7   3  909.41   47.30
  -2  -7  -3  774.32   48.50
   2  -7   3  964.40   53.49
  -2   7   3  903.11   47.50
  -2  -7  -3  867.81   50.29
   2  -7   3  918.61   48.20
  -2   7   3  910.01   48.00
   2   7  -3  830.92   47.10
  -2   7   3  869.11   47.40
  -2  -7  -3  850.51   48.90
   2   7  -3  913.31   47.20
  -2   7   3  876.01   49.90
  -2  -7  -3  753.12   49.50
  -2   7   3  857.91   47.20
  -2   7   3  868.41   47.00
   2  -7   3  920.71   51.49
  -2  -7  -3  814.42   49.80
   2  -7   3  993.80   49.50
  -2   7   3  803.02   46.90
  -2   7   3  887.51   47.70
  -2  -7  -3  759.52   52.49
  -2   7   3  798.22   48.80
  -2   7   3  852.61   47.00
   2  -7  -3  918.71   47.90
   2   7   3  854.41   49.20
   2  -7  -3  904.91   48.30
  -2  -7   3  879.51   52.49
   2   7   3  895.31   47.10
  -2  -7   3  894.11   49.80
   2  -7  -3  866.11   48.30
  -2  -7   3  882.71   49.90
   2   7   3  883.71   47.00
   2   7   3  819.72   48.10
  -2  -7   3  855.41   48.50
  -2  -7   3  843.02   47.80
  -2  -7   3  971.90   50.29
   2   7   3  946.71   47.70
   2   7   3  918.91   47.40
   2   7   3  938.21   48.20
  -2  -7   3  936.61   53.99
  -2  -7   3  844.12   54.99
  -2  -7   3  847.82   47.90
   2   7   3  907.41   47.80
   2   7   3  938.41   47.10
   2  -7  -3  908.81   49.60
   2   7   3  870.51   47.30
   2   7   3  894.41   47.60
   2   7   3  841.72   47.70
   2  -7  -3  928.81   48.30
  -2  -7   3  864.21   48.90
   2  -7  -3  886.41   47.60
  -2  -8  -3   75.59    7.00
   2  -8   3   89.89    6.40
  -2   8   3   73.89    4.70
   2  -8   3   83.79    6.20
   2  -8   3   84.09    5.50
  -2   8   3   76.39    5.00
  -2  -8  -3   71.59    8.50
   2   8  -3   74.69    4.90
  -2  -8  -3   78.09    6.90
  -2   8   3   75.89    5.20
  -2   8   3   79.89    5.00
  -2   8   3   78.99    5.30
   2  -8   3   80.49    5.60
  -2   8   3   80.09    5.50
  -2  -8  -3   82.69    6.30
   2  -8   3   88.39    7.80
  -2  -8  -3   80.69    6.20
   2   8  -3   74.89    5.10
   2  -8   3   85.59    5.60
  -2   8   3   72.79    7.00
   2  -8  -3   83.29    5.90
   2   8   3   77.39    5.30
   2   8   3   80.99    5.20
   2  -8  -3   87.69    5.40
   2   8   3   78.49    4.90
  -2  -8   3   80.09    8.10
   2   8   3   73.29    5.10
  -2  -8   3   77.19    5.50
   2   8   3   79.69    5.00
   2   8   3   80.39    5.10
   2   8   3   74.99    5.40
   2   8   3   76.19    4.80
   2  -8  -3   85.39    5.30
   2  -8  -3   92.59    5.80
  -2  -8   3   86.29   10.20
  -2  -8   3   82.19    6.30
   2  -8  -3   86.99    5.90
  -2  -8   3   81.79    5.90
  -2  -8   3   73.89    6.50
  -2   0   4  740.73   40.50
   2   0   4  738.13   39.40
  -2   0   4  729.63   40.80
   2   0   4  708.43   39.10
  -2   0   4  720.43   39.30
  -2   0   4  798.12   40.70
  -2   0   4  743.93   38.90
   2   0   4  772.12   39.60
   2   0   4  679.03   39.20
   2   0   4  684.03   40.00
  -2   0   4  804.22   39.80
   2  -1   4  521.25   27.40
  -2   1   4  510.65   27.60
   2  -1   4  486.65   27.00
  -2   1   4  525.95   27.50
   2  -1   4  499.15   28.20
   2  -1   4  531.85   28.30
  -2   1   4  510.25   28.40
   2  -1   4  477.05   27.70
  -2   1   4  544.65   28.40
  -2   1   4  533.05   27.30
   2  -1   4  451.15   28.20
  -2   1   4  507.95   26.80
  -2   1   4  503.55   28.70
  -2  -1   4  417.16   29.10
   2   1   4  513.25   27.10
   2   1   4  503.15   27.30
   2   1   4  484.35   27.70
  -2  -1   4  549.35   28.80
  -2  -1   4  439.56   28.80
  -2  -1   4  553.54   27.00
  -2  -1   4  446.86   28.10
  -2  -1   4  520.35   28.10
  -2  -1   4  471.45   28.20
  -2  -1   4  532.35   29.10
  -2  -1   4  523.95   28.60
   2   1   4  530.85   27.40
   2   1   4  566.44   27.40
   2   1   4  486.65   27.20
  -2   2   4  195.08   12.00
  -2   2   4  201.08   12.50
   2  -2   4  204.08   11.20
  -2   2   4  191.58   11.00
   2  -2   4  192.78   12.00
  -2   2   4  193.58   11.30
   2   2  -4  187.38   11.00
  -2   2   4  189.88   11.30
  -2   2   4  202.38   12.80
   2  -2   4  198.18   10.90
  -2   2   4  192.58   10.70
   2  -2   4  229.38   12.40
  -2  -2   4  206.58   13.10
  -2  -2   4  194.28   12.60
   2   2   4  178.98   11.30
   2   2   4  194.38   11.50
  -2  -2   4  166.38   12.70
  -2  -2   4  164.88   12.10
   2   2   4  189.78   11.10
  -2  -2   4  191.68   12.90
  -2  -2   4  196.88   11.20
  -2  -2   4  185.18   12.80
  -2  -2   4  200.08   12.60
   2   2   4  215.38   10.80
   2   2   4  190.88   11.20
   2   2   4  191.58   11.10
   2   2   4  182.28   10.80
  -2   3   4  560.84   30.40
   2  -3   4  600.84   31.90
  -2   3   4  590.04   32.80
  -2  -3  -4  587.34   32.10
  -2   3   4  540.15   30.80
  -2   3   4  576.04   33.30
  -2   3   4  556.04   31.00
  -2   3   4  576.44   31.70
   2  -3   4  576.54   31.80
   2  -3   4  523.15   30.70
   2   3  -4  538.65   30.30
  -2   3   4  596.54   30.20
   2  -3   4  548.15   31.70
  -2  -3   4  562.54   32.90
   2   3   4  563.14   30.50
   2   3   4  592.24   31.40
  -2  -3   4  507.05   32.40
   2   3   4  602.84   30.20
   2   3   4  583.44   30.20
  -2  -3   4  582.54   32.50
   2   3   4  561.04   31.20
  -2  -3   4  509.15   33.20
  -2  -3   4  485.45   30.90
  -2  -3   4  575.34   33.50
  -2   4   4  606.84   32.30
  -2   4   4  486.85   36.20
   2  -4   4  678.43   34.10
   2  -4   4  570.34   32.50
  -2   4   4  604.34   31.90
   2  -4   4  578.44   33.40
  -2   4   4  592.14   31.90
  -2   4   4  599.14   31.90
  -2   4   4  633.84   32.30
   2  -4   4  633.04   34.00
  -2   4   4  602.64   32.20
  -2   4   4  619.54   32.00
  -2   4   4  586.94   32.90
  -2   4   4  598.74   32.60
  -2   4   4  600.54   31.90
  -2   4   4  570.14   33.70
  -2   4   4  571.24   32.80
  -2   4   4  669.23   37.20
   2  -4   4  568.44   33.30
   2  -4   4  552.34   33.90
   2  -4   4  555.44   34.50
  -2   4   4  599.94   32.30
  -2   4   4  579.84   33.20
   2  -4   4  575.84   33.20
   2  -4   4  545.15   37.20
  -2   4   4  613.14   32.40
   2  -4   4  669.83   34.30
   2  -4   4  684.23   37.90
   2  -4   4  489.65   33.30
  -2   4   4  621.24   32.30
  -2   4   4  580.74   32.00
  -2   4   4  601.64   32.20
   2  -4   4  562.34   35.70
  -2   4   4  595.74   32.10
   2   4  -4  564.14   32.20
  -2   4   4  610.74   32.60
   2  -4   4  514.55   34.50
   2  -4   4  557.24   32.70
   2  -4   4  560.24   33.50
   2  -4   4  584.84   34.10
   2  -4   4  566.04   33.90
  -2   4   4  598.34   32.50
  -2   4   4  605.14   32.20
  -2   4   4  612.54   32.40
   2  -4   4  573.04   36.00
   2  -4   4  574.04   33.00
   2  -4   4  583.24   33.80
  -2  -4   4  507.65   33.20
  -2  -4   4  608.74   34.10
   2   4   4  617.94   32.30
  -2  -4   4  636.14   34.40
   2   4   4  599.24   32.10
   2  -4  -4  512.15   33.70
   2   4   4  591.84   32.00
   2   4   4  617.24   33.60
   2   4   4  639.64   32.70
  -2  -4   4  655.83   36.90
   2   4   4  624.64   33.20
   2   4   4  613.14   32.10
  -2  -4   4  650.83   35.20
  -2  -4   4  617.24   34.20
   2   4   4  617.24   31.80
  -2  -4   4  589.04   35.90
  -2  -4   4  564.94   35.50
  -2  -4   4  567.14   34.60
  -2  -4   4  658.53   39.00
  -2  -4   4  583.34   33.40
  -2  -4   4  579.84   34.80
  -2  -4   4  560.44   39.60
  -2  -4   4  626.04   32.50
   2   4   4  624.44   32.20
  -2  -4   4  599.14   33.00
   2   4   4  604.14   32.50
  -2  -4   4  648.24   36.10
  -2  -4   4  611.24   32.90
  -2  -4   4  639.64   34.30
   2   4   4  623.04   32.20
  -2  -4   4  621.94   33.60
   2   4   4  530.55   32.30
   2   4   4  587.54   32.30
   2   4   4  662.33   33.80
   2   4   4  601.84   32.80
  -2  -4   4  623.24   32.90
   2   4   4  590.94   32.40
  -2  -4   4  563.64   35.30
   2   4   4  599.74   31.90
   2   4   4  599.24   32.00
   2   4   4  617.94   32.00
   2   4   4  609.04   32.10
  -2  -4   4  563.94   35.40
   2   4   4  625.04   32.40
  -2  -4   4  614.64   34.20
  -2  -4   4  616.14   33.80
  -2   5   4   42.30    4.60
   2  -5   4   37.50    4.40
  -2   5   4   42.60    3.60
  -2   5   4   42.90    3.10
  -2   5   4   42.90    3.20
   2  -5   4   51.19    7.10
  -2   5   4   47.50    3.60
  -2   5   4   42.30    3.40
   2  -5   4   42.70    5.40
   2  -5   4   44.60    4.60
  -2   5   4   41.80    3.30
   2  -5   4   30.20    5.30
   2  -5   4   47.50    5.00
  -2   5   4   44.30    3.30
   2  -5   4   40.80    4.90
   2   5  -4   43.70    3.20
   2  -5   4   42.00    5.10
  -2   5   4   43.50    3.40
  -2   5   4   44.20    3.10
   2  -5   4   34.10    4.30
  -2   5   4   50.49    7.00
   2  -5   4   44.30    4.60
  -2   5   4   43.00    3.60
   2  -5   4   33.00    5.00
   2  -5   4   38.30    7.50
  -2   5   4   34.30    3.80
  -2   5   4   43.50    3.20
  -2   5   4   43.10    4.40
  -2  -5  -4   43.90    6.20
  -2   5   4   43.30    3.40
  -2   5   4   42.70    3.10
   2  -5   4   40.00    4.10
   2  -5   4   43.10    6.60
  -2   5   4   44.50    3.40
  -2   5   4   38.70    3.50
   2  -5   4   40.90    4.20
  -2   5   4   50.39    3.80
   2  -5   4   42.40    4.20
  -2   5   4   43.80    3.50
   2  -5   4   54.29    5.40
   2  -5   4   47.00    4.90
  -2   5   4   42.90    3.80
   2  -5   4   36.70    5.30
   2  -5   4   42.10    3.60
  -2   5   4   42.80    3.20
   2  -5   4   37.90    6.50
  -2   5   4   42.90    3.90
   2  -5   4   30.90    4.90
   2  -5   4   38.00    4.90
   2   5   4   45.60    3.50
  -2  -5   4   50.09    4.80
   2   5   4   45.40    3.50
   2   5   4   51.19    3.80
   2   5   4   46.30    3.30
  -2  -5   4   64.09    6.20
   2   5   4   48.50    3.40
   2   5   4   41.90    3.20
  -2  -5   4   53.39    4.80
   2  -5  -4   37.70    4.90
   2   5   4   40.10    5.90
  -2  -5   4   54.39    5.10
  -2  -5   4   31.90    5.70
  -2  -5   4   47.20    6.10
  -2  -5   4   49.50    6.30
  -2  -5   4   55.69    5.10
   2   5   4   43.90    3.10
   2   5   4   40.70    4.30
   2   5   4   45.00    3.40
   2   5   4   44.00    3.60
  -2  -5   4   46.60    4.50
  -2  -5   4   52.99    5.50
   2   5   4   27.50    4.00
   2   5   4   43.90    2.90
   2   5   4   38.20    4.20
   2   5   4   41.50    3.80
  -2  -5   4   46.10    5.60
   2   5   4   42.80    3.20
   2   5   4   51.79    3.70
  -2  -5   4   45.20    5.50
  -2  -5   4   57.49    7.50
   2   5   4   44.50    3.10
  -2  -5   4   41.60    5.80
   2   5   4   42.80    3.10
   2   5   4   43.40    3.30
  -2  -5   4   55.69    9.00
  -2  -5   4   38.60    5.50
   2   5   4   44.30    3.40
  -2  -5   4   49.70    4.40
  -2  -5   4   41.00    4.40
  -2  -5   4   31.90    4.40
   2   5   4   43.50    3.30
  -2  -5   4   46.70    8.40
   2   5   4   52.19    4.60
   2  -6   4  386.66   23.00
  -2   6   4  373.56   20.70
   2  -6   4  386.96   25.50
  -2   6   4  377.06   20.90
   2  -6   4  405.36   22.90
   2   6  -4  380.36   21.00
   2  -6   4  421.66   23.30
  -2   6   4  383.36   20.90
  -2   6   4  348.57   21.30
  -2   6   4  368.66   21.00
  -2   6   4  361.86   21.10
   2  -6   4  389.76   21.40
  -2  -6  -4  319.77   26.50
   2  -6   4  437.46   23.20
  -2   6   4  384.56   21.20
  -2  -6  -4  347.47   23.80
   2   6  -4  355.16   20.80
  -2   6   4  386.16   21.20
  -2   6   4  450.55   26.70
  -2   6   4  318.47   22.60
  -2   6   4  356.46   21.40
  -2   6   4  383.86   21.10
   2  -6   4  384.96   22.30
  -2   6   4  386.26   21.00
   2  -6   4  388.86   27.00
  -2   6   4  391.46   21.50
  -2  -6  -4  370.86   24.50
   2   6  -4  372.56   20.90
  -2   6   4  379.76   21.20
  -2   6   4  376.96   21.10
  -2   6   4  354.56   20.70
  -2   6   4  347.57   21.20
   2  -6   4  374.46   22.20
   2  -6   4  409.66   22.50
   2  -6   4  416.26   22.80
  -2   6   4  315.87   25.90
  -2   6   4  380.66   21.30
  -2   6   4  385.96   21.60
  -2   6   4  368.46   21.80
   2  -6   4  379.76   22.00
  -2   6   4  386.26   20.90
   2  -6   4  402.76   22.40
  -2   6   4  363.86   20.80
   2  -6   4  408.66   22.90
   2  -6   4  438.76   24.40
   2  -6   4  402.76   23.50
  -2  -6   4  406.36   21.60
   2   6   4  379.96   20.80
  -2  -6   4  389.26   30.90
   2   6   4  380.16   21.70
  -2   6  -4  399.86   23.20
   2  -6  -4  360.56   22.10
   2  -6  -4  373.76   23.30
   2   6   4  376.36   20.80
  -2  -6   4  390.96   23.80
   2   6   4  382.36   21.60
  -2  -6   4  427.26   24.60
   2   6   4  337.57   22.10
  -2  -6   4  368.36   22.20
  -2  -6   4  408.16   24.80
  -2  -6   4  394.96   24.30
   2   6   4  383.66   21.10
  -2  -6   4  375.76   27.90
  -2  -6   4  394.76   23.40
  -2  -6   4  386.56   28.20
  -2  -6   4  409.36   22.20
   2   6   4  404.86   21.40
  -2  -6   4  355.16   21.90
  -2  -6   4  407.76   24.30
  -2  -6   4  402.06   28.10
   2   6   4  422.66   22.00
   2   6   4  378.96   21.20
  -2  -6   4  397.06   24.20
   2   6   4  381.36   20.90
   2   6   4  390.96   21.00
  -2  -6   4  390.96   23.30
  -2  -6   4  394.56   25.70
   2   6   4  421.36   21.20
   2   6   4  375.96   20.80
   2  -6  -4  393.66   21.50
  -2  -6   4  393.06   21.90
  -2  -6   4  382.96   23.30
   2  -6  -4  374.66   22.10
   2   6   4  379.36   22.30
   2   6   4  380.16   20.70
   2   6   4  360.16   21.40
   2   6   4  374.26   21.00
  -2  -6   4  385.36   23.10
  -2   7   4   32.20    3.20
   2  -7   4   33.80    4.10
  -2   7   4   33.60    2.50
  -2   7   4   30.00    3.70
  -2  -7  -4   34.40    5.20
   2  -7   4   33.70    3.40
   2  -7   4   35.00    3.60
  -2  -7  -4   35.00    4.70
  -2   7   4   33.30    2.70
  -2   7   4   31.20    3.00
   2  -7   4   34.60    4.40
   2  -7   4   35.30    3.50
  -2   7   4   29.70    2.40
  -2   7   4   40.70    2.90
  -2  -7  -4   32.20    5.30
   2  -7   4   32.10    2.90
  -2  -7  -4   21.20    5.60
  -2   7   4   33.60    2.50
  -2  -7  -4   41.10    6.00
  -2   7   4   32.30    2.60
   2  -7   4   39.30    4.00
   2  -7   4   36.80    7.20
  -2   7   4   32.00    3.00
  -2   7   4   33.30    3.20
  -2   7   4   32.40    5.00
   2  -7   4   37.20    5.80
   2  -7   4   33.60    3.60
   2  -7   4   48.00    4.20
  -2   7   4   36.00    2.70
  -2   7   4   31.40    2.80
   2  -7   4   35.20    3.50
   2   7   4   37.00    3.20
   2  -7  -4   31.80    3.60
   2  -7  -4   32.00    3.80
   2   7   4   32.00    3.20
   2  -7  -4   32.60    3.20
   2   7   4   32.20    2.60
   2  -7  -4   35.70    4.30
   2   7   4   36.90    2.60
   2   7   4   31.00    3.40
   2   7   4   31.80    2.50
   2  -7  -4   31.80    3.40
   2   7   4   29.90    2.60
   2   7   4   33.60    2.60
   2   7   4   33.10    3.20
   2   7   4   32.80    3.40
   2   7   4   32.70    2.80
   2   7   4   32.80    2.90
  -2   8   4   77.79    5.00
  -2  -8  -4   79.79    6.60
  -2   8   4   76.79    4.90
  -2   8   4   76.39    5.30
  -2   8   4   69.49    4.70
   2  -8   4   90.69    5.90
  -2  -8  -4   86.89    6.10
  -2  -8  -4   85.09    5.60
  -2  -8  -4   90.69    6.00
   2  -8   4   96.09    8.50
   2  -8   4   84.59    5.50
   2  -8   4   80.99    5.80
  -2   8   4   77.39    5.10
   2  -8   4   83.69    5.40
   2  -8   4   85.09    7.10
  -2  -8  -4   73.09    8.30
   2   8  -4   73.79    4.90
   2   8  -4   77.69    4.80
   2  -8   4   82.99    5.30
  -2   8   4   79.89    5.20
  -2   8   4   77.49    4.90
  -2  -8   4   85.49    9.10
   2   8   4   71.79    5.00
   2   8   4   81.49    5.10
   2  -8  -4   89.29    5.60
  -2  -8   4   80.89    5.30
   2   8   4   76.89    5.20
  -2  -8   4   84.99    5.70
   2   8   4   73.79    4.80
   2   8   4   79.59    4.90
  -2  -8   4   84.89    7.20
  -2  -8   4   84.49    6.20
   2   8   4   77.59    4.70
   2   8   4   72.39    5.20
  -2  -8   4   82.79    6.10
  -2  -8   4   86.69    5.90
   2  -8  -4   90.89    5.70
   2   8   4   78.89    5.00
   2  -8  -4   91.89    5.40
   2  -8  -4   90.69    5.30
  -2   0   5    0.10    0.30
   2   0   5    0.60    0.70
   2   0   5    1.10    0.60
  -2   0   5    0.70    0.60
  -2   0   5    0.00    0.90
  -2   0   5   -0.30    0.70
  -2   0   5   -0.70    1.20
   2   0   5    0.60    0.60
  -2   0   5   -0.60    1.50
   2   0   5    0.80    1.20
   2  -1   5   40.10    2.90
   2  -1   5   37.60    3.40
  -2   1   5   40.20    2.60
   2  -1   5   43.50    4.10
  -2   1   5   40.60    4.10
  -2   1   5   38.30    4.40
  -2   1   5   42.40    3.40
   2  -1   5   32.10    4.00
  -2   1   5   41.40    3.20
   2  -1   5   39.50    3.20
   2  -1   5   37.90    4.10
  -2   1   5   39.60    4.70
   2   1   5   39.70    2.90
  -2  -1   5   40.10    4.50
  -2  -1   5   43.40    4.50
   2   1   5   45.70    3.10
  -2  -1   5   37.80    4.90
   2   1   5   40.60    3.10
   2   1   5   39.10    3.20
  -2  -1   5   45.90    2.90
  -2  -1   5   36.10    4.70
  -2  -1   5   49.99    4.10
  -2   2   5    1.00    0.60
   2  -2   5    1.60    1.30
   2  -2   5    0.40    1.30
  -2   2   5   -0.20    1.40
  -2   2   5    2.50    1.00
  -2   2   5    1.50    0.80
   2  -2   5    2.20    2.40
  -2   2   5    1.80    1.00
  -2   2   5    0.50    1.60
   2  -2   5    2.00    1.10
  -2   2   5    3.30    1.00
   2  -2   5    2.00    1.60
   2  -2   5    1.30    1.10
  -2   2   5    1.50    0.80
  -2   2   5    0.70    0.70
  -2   2   5    3.30    1.20
  -2   2   5    8.20    2.90
   2  -2   5    3.20    2.70
  -2   2   5    3.40    1.10
   2  -2   5    1.20    1.60
   2  -2   5    2.50    1.20
  -2   2   5    1.10    0.80
  -2   2   5    1.50    0.90
   2  -2   5    2.90    2.00
   2  -2   5    1.20    1.50
  -2   2   5    2.60    1.20
  -2   2   5    5.40    1.40
   2  -2   5    1.40    1.60
   2  -2   5    0.80    1.30
  -2   2   5    3.00    0.70
   2  -2   5    0.20    1.60
  -2   2   5    1.40    0.90
   2  -2   5    0.80    0.90
   2  -2   5    4.30    1.60
  -2   2   5    0.60    1.90
   2  -2   5    1.10    1.30
  -2   2   5    1.70    0.80
  -2   2   5    3.20    1.10
  -2   2   5    1.30    0.80
  -2   2   5    1.30    0.60
  -2   2   5    1.90    1.90
  -2   2   5    1.10    0.80
   2  -2   5    1.00    0.80
   2  -2   5    1.00    1.10
  -2   2   5    2.60    1.40
   2   2   5    1.90    0.70
  -2  -2   5    0.60    1.70
  -2  -2   5    3.60    1.30
  -2  -2   5    2.30    2.00
   2   2   5    1.10    0.60
  -2  -2   5    1.20    1.40
  -2  -2   5    1.20    1.40
  -2  -2   5    1.40    2.40
   2   2   5    4.70    1.10
  -2  -2   5    3.10    4.40
  -2  -2   5    0.50    2.50
  -2  -2   5    1.30    2.10
   2   2   5    1.90    0.80
   2   2   5    1.30    0.70
  -2  -2   5    0.50    1.70
  -2  -2   5    0.90    1.20
  -2  -2   5    1.10    2.70
  -2  -2   5    1.10    1.70
   2   2   5    0.90    0.60
  -2  -2   5    1.00    0.80
   2   2   5    1.50    0.90
  -2  -2   5   -0.60    1.80
   2   2   5    1.50    1.10
   2   2   5    1.30    0.70
  -2  -2   5    0.90    1.70
   2   2   5    2.70    0.90
   2   2   5    0.70    0.70
   2   2   5    0.80    0.80
  -2  -2   5    1.60    0.90
  -2  -2   5    0.50    1.90
  -2  -2   5   -0.50    2.80
   2   2   5    1.70    1.10
  -2  -2   5    4.60    1.40
  -2  -2   5    1.70    1.80
   2   2   5    1.50    0.80
  -2  -2   5    2.80    1.10
  -2  -2   5    1.10    2.10
  -2  -2   5    1.90    2.40
   2   2   5    1.30    0.70
   2   2   5    1.40    0.80
   2   2   5    1.30    0.70
  -2  -2   5    3.80    2.70
   2   2   5    1.30    0.90
   2   2   5    2.30    0.70
   2   2   5    1.10    0.80
  -2  -2   5    1.40    1.50
  -2  -2   5    1.30    2.00
  -2  -2   5    1.80    1.70
   2  -3   5    1.20    1.40
   2  -3   5    1.20    1.40
   2  -3   5    2.20    2.60
  -2   3   5    4.80    3.10
  -2   3   5    1.00    1.00
  -2   3   5    0.50    1.10
   2  -3   5    2.30    1.70
  -2   3   5    2.70    2.30
   2  -3   5    1.60    2.50
  -2   3   5    0.90    0.70
  -2   3   5    1.00    1.00
  -2   3   5    2.20    1.10
   2  -3   5    2.70    1.50
  -2   3   5    2.10    0.70
  -2   3   5    1.00    0.80
   2   3  -5    0.90    0.70
  -2   3   5    2.20    1.10
   2  -3   5    0.40    1.40
   2  -3   5    3.10    2.10
   2  -3   5    0.70    1.30
  -2   3   5    1.10    0.80
   2  -3   5    1.60    1.20
  -2   3   5    1.20    0.80
  -2   3   5    1.90    0.80
   2  -3   5    2.40    1.70
  -2   3   5    1.50    0.80
  -2   3   5    1.70    0.70
   2  -3   5    1.40    1.60
   2  -3   5    3.00    1.60
   2  -3   5   -0.20    1.60
  -2   3   5    1.00    0.80
  -2   3   5    2.00    1.00
  -2   3   5    1.90    0.90
   2  -3   5    3.50    1.60
  -2   3   5    2.50    1.00
   2  -3   5    0.60    1.00
   2  -3   5    2.00    1.80
  -2   3   5    1.60    0.80
   2  -3   5    1.40    1.00
  -2   3   5    1.30    1.10
   2  -3   5    2.60    2.00
   2  -3   5    1.00    1.60
  -2  -3   5    1.60    1.10
  -2  -3   5    0.50    1.20
  -2  -3   5    2.00    1.80
   2   3   5    1.10    0.80
  -2  -3   5    1.00    2.20
   2   3   5    1.10    1.20
  -2  -3   5    6.60    2.70
   2   3   5    1.10    0.60
   2   3   5    1.30    0.80
  -2  -3   5    1.60    2.10
  -2  -3   5    2.90    2.10
  -2  -3   5    0.10    2.30
   2   3   5    1.40    0.90
   2   3   5    1.30    0.90
  -2  -3   5    3.00    3.00
  -2  -3   5    1.80    2.10
  -2  -3   5    0.10    2.00
  -2  -3   5    2.20    1.40
   2   3   5    3.50    1.20
  -2  -3   5   -0.30    2.50
   2   3   5    1.50    0.80
  -2  -3   5   -0.10    1.50
   2   3   5    1.40    1.10
   2   3   5    1.60    1.20
   2   3   5    1.40    0.90
   2   3   5    1.30    0.70
   2   3   5    1.00    0.90
   2   3   5    0.90    0.70
  -2  -3   5    5.50    2.70
  -2  -3   5    1.50    1.20
  -2  -3   5   -0.20    2.60
  -2  -3   5    0.70    1.60
  -2  -3   5    0.40    2.00
  -2  -3   5    1.50    1.50
  -2  -3   5    2.50    3.00
   2   3   5    1.00    0.60
  -2  -3   5    3.50    2.90
   2   3   5    0.60    0.70
   2   3   5    2.10    0.90
  -2  -3   5    3.60    2.10
  -2  -3   5    2.10    4.40
  -2  -3   5    1.50    1.20
  -2  -3   5    0.20    2.20
   2   3   5    0.90    0.80
   2   3   5    1.10    0.70
  -2   4   5  150.78    8.80
  -2   4   5  154.48    8.80
  -2   4   5  140.59   10.10
   2  -4   5  149.19   10.80
  -2   4   5  158.48    9.30
  -2   4   5  167.08   14.30
  -2   4   5  155.38    9.00
  -2   4   5  160.58    9.60
   2  -4   5  177.78   14.50
  -2   4   5  157.58    9.20
   2  -4   5  149.19    9.90
  -2   4   5  151.28    9.40
   2  -4   5  143.29   14.00
  -2   4   5  145.69    8.80
  -2   4   5  157.98   10.00
   2  -4   5  145.19   10.20
  -2   4   5  155.78    8.80
  -2   4   5  153.48    9.20
  -2   4   5  147.89    8.80
   2  -4   5  136.59    9.50
   2  -4   5  150.58   13.10
   2  -4   5  188.38   11.60
   2  -4   5  146.89   10.30
   2  -4   5  137.19   12.10
  -2   4   5  149.09    9.60
   2  -4   5  155.58   10.90
  -2   4   5  155.78    9.10
  -2   4   5  154.18    8.80
   2  -4   5  144.99   10.00
  -2   4   5  148.79   10.90
  -2   4   5  152.68    9.10
  -2   4   5  147.09    9.10
  -2   4   5  150.48    9.30
  -2   4   5  138.59    9.30
   2  -4   5  142.39    9.30
   2  -4   5  170.18   11.20
  -2   4   5  155.28    9.50
   2  -4   5  137.89   10.80
   2  -4   5  149.69   11.30
  -2  -4   5  170.08   13.70
  -2  -4   5  139.19    9.70
  -2  -4   5  158.68   10.00
  -2  -4   5  145.09   10.30
  -2  -4   5  150.78    9.80
  -2  -4   5  146.79   12.30
   2   4   5  147.49    9.40
  -2  -4   5  136.19   10.60
  -2  -4   5  158.78    9.50
  -2  -4   5  164.18   11.50
   2   4   5  159.98    9.80
   2   4   5  150.88    9.80
   2   4   5  130.69    9.30
   2   4   5  154.78    8.80
  -2  -4   5  149.49   12.60
  -2  -4   5  138.39   13.20
   2   4   5  146.79    9.20
  -2  -4   5  155.78   11.20
  -2  -4   5  155.78   11.20
  -2  -4   5  149.29   11.80
  -2  -4   5  164.08   11.40
  -2  -4   5  147.59   14.40
   2   4   5  152.38    9.00
  -2  -4   5  128.59   10.40
  -2  -4   5  155.48   10.70
  -2  -4   5  156.48   12.10
   2   4   5  157.68    8.70
   2   4   5  155.38    9.00
   2   4   5  148.19   10.90
   2   4   5  160.58    9.10
  -2  -4   5  148.99   16.20
  -2  -4   5  149.88   10.60
   2   4   5  153.88    9.20
   2   4   5  155.38    8.80
  -2  -4   5  143.09   11.50
   2   4   5  147.69    8.80
   2   4   5  156.48    8.90
   2   4   5  153.78    8.90
   2   4   5  156.08    9.00
  -2  -4   5  144.39   12.50
  -2  -4   5  159.78   13.40
   2   4   5  155.28    9.20
   2  -5   5   88.79    6.80
  -2   5   5  105.89    6.50
  -2   5   5  102.39    6.20
  -2   5   5  104.09    6.20
   2  -5   5  100.19   11.60
  -2   5   5   96.39    6.30
   2  -5   5   89.09    8.00
  -2   5   5  104.19    6.10
   2  -5   5  104.79    8.20
   2  -5   5   97.09    7.60
   2  -5   5   98.19    8.10
   2  -5   5  116.09    8.40
  -2   5   5   92.89    8.00
  -2   5   5  103.79    6.90
  -2   5   5  106.09    6.70
   2  -5   5  116.69   11.20
   2  -5   5   93.49    7.30
  -2   5   5  103.59    6.40
   2  -5   5  100.49   10.50
  -2   5   5  100.69    6.70
  -2   5   5  102.59    6.70
   2  -5   5   92.89    6.60
  -2  -5  -5   99.69    9.80
  -2   5   5  103.09    6.60
  -2   5   5   98.79    6.40
  -2   5   5   96.99    6.30
  -2   5   5   99.59    7.20
  -2   5   5  100.59    6.20
   2  -5   5   93.09    9.00
  -2   5   5  103.89    6.10
  -2   5   5  112.09   11.70
  -2   5   5   98.39    6.90
   2  -5   5   97.19    7.60
  -2   5   5   97.69    6.10
  -2   5   5  106.09    6.90
   2  -5   5   79.99    7.10
  -2   5   5  103.19    6.10
   2  -5   5   91.49    7.10
  -2  -5   5   99.49    6.80
  -2  -5   5   97.69    9.30
   2   5   5   98.29    6.00
   2   5   5  103.79    6.30
   2   5   5   98.39    6.50
  -2  -5   5  105.29    7.70
  -2  -5   5  106.89    9.70
   2   5   5  100.49    6.20
  -2  -5   5   98.39   10.30
   2   5   5   93.39    6.30
   2   5   5   98.99    6.20
   2   5   5  110.79    6.50
   2   5   5   96.49    6.30
  -2  -5   5  107.29    7.70
  -2  -5   5  102.99    9.70
  -2  -5   5   99.49    7.90
   2   5   5  103.39    7.00
  -2  -5   5  103.79    7.30
  -2  -5   5   98.79    7.20
   2   5   5   97.29    6.10
   2   5   5   92.79    6.60
  -2  -5   5   84.69    8.90
  -2  -5   5  113.79    8.80
  -2  -5   5   96.99    8.60
  -2  -5   5   99.99    7.90
   2   5   5   79.19    6.50
  -2  -5   5   91.79   11.30
   2   5   5  100.29    6.10
   2  -5  -5  104.09    6.90
  -2  -5   5   86.79    7.20
   2   5   5  100.09    6.90
   2   5   5   92.29    6.20
  -2  -5   5  105.59   12.90
  -2  -5   5  106.49    9.60
  -2  -5   5  120.59    9.50
  -2  -5   5   97.99    8.50
   2  -6   5    2.00    1.50
   2  -6   5    6.10    1.90
  -2   6   5    2.80    0.90
  -2  -6  -5    0.90    4.10
  -2   6   5    3.20    1.00
   2  -6   5    3.10    1.50
   2  -6   5    2.30    1.80
  -2   6   5    1.80    1.00
  -2   6   5    3.40    1.10
  -2   6   5    2.80    0.80
  -2   6   5    2.40    1.20
   2   6  -5    3.20    1.10
  -2   6   5    2.20    1.10
   2  -6   5    2.20    1.90
  -2  -6  -5    3.80    3.00
   2  -6   5    2.70    1.90
  -2   6   5    6.80    1.60
   2  -6   5    5.40    2.20
  -2   6   5   10.30    1.60
   2  -6   5    2.20    1.50
  -2   6   5    5.10    1.60
  -2   6   5    1.70    0.80
   2   6  -5    2.30    1.00
  -2   6   5    2.50    0.90
   2  -6   5    2.50    2.00
  -2   6   5    3.20    1.00
  -2   6   5    3.10    2.80
   2  -6   5    2.30    2.30
  -2   6   5    2.70    1.10
   2  -6   5    3.50    1.80
  -2   6   5    3.40    1.30
  -2   6   5    4.40    1.80
   2  -6   5    5.60    3.10
   2  -6   5    3.70    3.50
  -2   6   5    3.90    1.00
  -2   6   5    3.50    1.10
  -2   6   5    2.60    1.30
   2  -6   5    7.60    1.50
  -2   6   5    2.90    0.80
  -2   6   5    2.70    1.00
   2  -6   5    3.20    2.40
   2   6   5    6.30    1.40
   2   6   5    5.80    1.40
  -2  -6   5    3.70    1.60
  -2  -6   5    3.40    2.30
  -2  -6   5    1.30    2.70
   2   6   5    2.30    0.80
  -2  -6   5    0.60    4.60
  -2  -6   5    2.50    2.30
  -2  -6   5    4.90    2.80
   2   6   5    3.10    1.20
  -2  -6   5    1.50    1.80
   2   6   5    2.70    0.90
  -2  -6   5    1.90    2.30
  -2  -6   5    2.90    2.00
  -2   6  -5    1.00    2.00
  -2  -6   5    5.10    4.30
   2   6   5    2.10    0.90
  -2  -6   5    7.20    2.40
  -2  -6   5    3.10    1.60
  -2  -6   5    3.00    1.70
   2   6   5    3.50    1.10
   2   6   5    3.30    1.00
   2   6   5   -0.70    1.90
  -2  -6   5    5.10    3.30
   2   6   5    3.50    1.00
  -2  -6   5    8.90    2.60
   2   6   5    6.70    1.50
  -2  -6   5    5.30    2.80
   2   6   5    2.80    1.00
   2   6   5    2.20    0.90
   2   6   5    2.20    1.20
  -2  -6   5    3.70    2.60
   2   6   5    2.30    1.50
   2  -6  -5    3.10    1.90
  -2  -6   5    1.70    2.20
   2  -6  -5    2.70    1.30
  -2  -6   5    2.50    1.90
   2   6   5    3.00    0.90
  -2  -6   5    3.40    3.20
   2  -7   5   92.89    6.30
   2  -7   5   90.09    5.70
   2   7  -5   82.69    5.40
  -2   7   5   89.29    5.90
  -2  -7  -5   89.49    7.10
  -2   7   5   89.49    6.00
  -2  -7  -5   83.19    7.70
  -2   7   5   89.99    5.80
  -2   7   5   87.59    5.50
  -2   7   5   98.99    5.40
  -2   7   5   84.39    5.50
  -2   7   5   85.79    5.30
  -2   7   5   84.79    5.30
  -2   7   5   92.99    5.40
  -2  -7  -5   86.69    6.90
   2  -7   5  102.49    9.80
  -2   7   5   69.69    7.70
   2  -7   5  101.19    7.00
  -2   7   5   87.19    5.60
   2   7  -5   83.29    5.50
  -2   7   5   90.39    5.60
  -2   7   5   88.59    5.30
   2  -7   5   89.39    6.00
   2  -7   5   95.09    6.30
   2  -7   5   95.69    8.30
   2  -7   5   85.69    6.70
  -2   7   5   84.49    6.10
   2  -7   5   93.99    6.20
   2   7   5   86.49    5.30
   2   7   5   88.49    5.50
  -2  -7   5   78.39    6.00
  -2  -7   5  102.19   11.30
   2   7   5   89.69    6.10
   2   7   5   76.19    5.80
  -2  -7   5  104.79    7.70
   2  -7  -5   97.89    6.40
   2   7   5   89.49    5.30
  -2  -7   5   98.99    7.20
   2   7   5   87.19    5.30
   2  -7  -5  102.79    6.30
   2   7   5   89.39    5.70
   2   7   5   92.59    5.40
  -2  -7   5   96.19    6.80
   2   7   5   93.49    5.70
   2  -7  -5  103.39    6.10
  -2  -7   5   88.09    7.20
   2   7   5   97.99    5.60
  -2  -7   5   98.39    7.30
  -2  -7   5   89.39    6.00
  -2  -7   5   79.09    9.20
   2   7   5   88.39    5.30
   2   7   5   93.29    6.00
  -2  -7   5   99.09    6.50
   2   7   5   86.79    5.30
   2   7   5   84.39    5.40
  -2  -7   5   94.99    6.10
  -2  -7   5   95.19    6.90
   2   0   6  485.65   25.90
  -2   0   6  424.36   28.60
  -2   0   6  489.05   25.60
   2   0   6  407.66   26.00
   2   0   6  447.26   25.70
  -2   0   6  474.45   26.30
  -2   0   6  483.85   25.70
  -2   0   6  494.15   29.20
  -2   0   6  529.85   27.00
  -2   0   6  455.85   28.10
  -2   0   6  512.35   28.10
   2   0   6  453.15   25.80
  -2   0   6  512.85   26.40
   2   0   6  461.15   25.90
  -2   0   6  459.85   27.20
   2   0   6  480.15   26.50
   2   0   6  467.05   25.70
  -2   0   6  502.65   26.00
  -2   0   6  413.56   27.60
  -2   0   6  523.15   25.50
  -2   0   6  434.96   27.60
  -2   0   6  522.55   25.80
   2   0   6  467.95   26.40
   2   0   6  465.75   26.00
  -2   0   6  511.15   26.00
   2   0   6  430.86   25.80
   2   0   6  483.15   25.60
  -2   0   6  451.05   26.60
  -2   0   6  432.76   27.90
   2   0   6  506.55   27.10
  -2   0   6  523.05   26.10
   2   0   6  446.36   25.80
  -2   0   6  436.06   27.30
   2   0   6  463.65   26.10
  -2   0   6  503.35   30.10
   2  -1   6  359.86   21.10
  -2   1   6  372.56   20.80
  -2   1   6  383.86   20.30
   2  -1   6  395.36   25.30
  -2   1   6  371.36   20.90
  -2   1   6  374.16   20.20
  -2   1   6  394.26   20.20
  -2   1   6  395.86   23.90
  -2   1   6  383.96   20.60
  -2   1   6  370.16   21.10
  -2   1   6  384.76   20.60
  -2   1   6  396.46   24.60
  -2   1   6  390.16   20.80
   2  -1   6  400.96   23.40
  -2   1   6  358.86   22.90
  -2   1   6  384.46   21.00
  -2   1   6  365.26   20.50
  -2   1   6  362.46   22.40
  -2   1   6  372.16   20.30
   2  -1   6  364.36   21.20
  -2   1   6  369.56   21.00
  -2   1   6  375.96   20.50
   2  -1   6  373.66   20.70
   2  -1   6  355.06   20.80
   2  -1   6  377.56   21.50
  -2   1   6  324.67   23.30
  -2   1   6  401.86   20.10
  -2   1   6  385.46   22.50
   2  -1   6  356.36   20.60
   2  -1   6  378.26   21.90
   2  -1   6  362.36   20.50
  -2   1   6  374.36   21.30
   2  -1   6  380.66   20.80
  -2  -1   6  382.66   22.80
   2   1   6  345.97   20.20
   2   1   6  346.97   20.40
   2   1   6  374.86   20.30
  -2  -1   6  384.16   20.40
  -2  -1   6  396.16   20.80
  -2  -1   6  420.26   25.50
   2   1   6  341.77   20.40
  -2  -1   6  367.56   20.90
  -2  -1   6  359.26   22.30
  -2  -1   6  381.76   20.60
  -2  -1   6  393.36   21.70
   2   1   6  354.26   20.60
   2   1   6  356.16   20.00
   2   1   6  348.97   20.30
  -2  -1   6  398.76   24.20
   2   1   6  346.17   20.50
   2   1   6  366.26   20.30
   2   1   6  358.76   20.20
  -2  -1   6  363.76   22.10
  -2  -1   6  358.36   22.90
  -2  -1   6  398.46   20.40
  -2  -1   6  395.06   20.80
  -2  -1   6  344.87   21.80
  -2  -1   6  330.47   22.20
  -2  -1   6  367.46   23.00
  -2  -1   6  342.77   22.60
   2   1   6  349.47   20.10
   2   1   6  360.36   20.80
   2   1   6  365.06   20.70
  -2  -1   6  335.27   23.30
  -2  -1   6  397.96   20.40
  -2  -1   6  336.67   22.40
   2   1   6  360.66   20.30
  -2  -1   6  356.16   21.80
   2   1   6  348.57   20.10
  -2   2   6   74.09    5.40
   2  -2   6   61.59    5.90
  -2   2   6   70.69    4.70
   2  -2   6   78.49    6.70
  -2   2   6   77.79    5.80
   2  -2   6   83.49    6.40
   2  -2   6   83.59    7.90
  -2   2   6   72.19    5.10
   2  -2   6   60.89    5.90
   2   2  -6   70.09    5.20
  -2   2   6   77.79    5.30
  -2   2   6   75.69    4.80
  -2   2   6   74.99    4.80
   2  -2   6   74.19    5.80
  -2   2   6   76.99    5.60
  -2   2   6   79.29    5.10
   2  -2   6   78.69    5.60
  -2   2   6   78.29    8.40
  -2   2   6   75.29    4.90
   2  -2   6   66.59    5.70
  -2   2   6   73.79    5.00
  -2   2   6   71.79    5.50
   2  -2   6   79.39    5.60
  -2   2   6   80.09    4.80
  -2   2   6   78.19    5.50
  -2   2   6   75.09    6.70
  -2   2   6   70.19    4.70
   2  -2   6   79.99    6.20
  -2   2   6   79.39    7.50
  -2   2   6   79.29    8.30
   2  -2   6   70.99    5.20
   2  -2   6   75.19    6.50
  -2   2   6   76.89    5.70
  -2   2   6   78.89    5.20
   2  -2   6   76.39    9.40
  -2   2   6   83.69    5.30
   2  -2   6   76.89    5.50
  -2   2   6   75.89    5.10
  -2  -2   6   79.89    8.40
  -2  -2   6   83.39    8.90
  -2  -2   6   81.29    8.00
  -2  -2   6   69.49    7.00
   2   2   6   67.19    4.90
  -2  -2   6   68.59    6.40
   2   2   6   76.19    5.40
  -2  -2   6   73.79    6.80
   2   2   6   73.39    5.00
   2   2   6   74.29    4.60
  -2  -2   6   78.19    5.10
  -2  -2   6   73.19    7.10
  -2  -2   6   74.19    7.30
  -2  -2   6   72.09    7.90
   2   2   6   76.79    4.90
  -2  -2   6   83.09    5.60
   2   2   6   77.69    4.90
   2   2   6   69.89    5.20
   2   2   6   74.29    5.20
  -2  -2   6   73.09    5.10
   2   2   6   84.89    6.20
  -2  -2   6   76.69    7.00
  -2  -2   6   71.19    7.00
  -2  -2   6   70.89    6.50
   2   2   6   70.69    4.70
  -2  -2   6   76.29    5.50
   2   2   6   75.49    4.90
  -2  -2   6   78.89    6.40
  -2  -2   6   69.59    5.30
  -2  -2   6   78.99   12.60
  -2  -2   6   81.09    9.40
   2   2   6   78.09    4.80
  -2  -2   6   75.09    7.50
   2   2   6   72.29    4.80
   2   2   6   76.19    4.90
  -2  -2   6   75.39    5.60
   2   2   6   73.59    5.20
  -2  -2   6   68.19    8.70
  -2   3   6    8.80    1.70
  -2   3   6   12.80    2.20
  -2   3   6   15.10    2.20
  -2   3   6   12.30    1.50
   2  -3   6    9.60    1.90
  -2   3   6    9.20    3.70
   2  -3   6    9.20    2.50
   2  -3   6   10.60    2.90
  -2   3   6   12.00    3.00
   2  -3   6   11.50    2.80
  -2   3   6   13.80    1.90
  -2   3   6   15.00    2.40
  -2   3   6   11.90    1.50
  -2   3   6   13.70    1.90
  -2   3   6   12.50    1.70
  -2   3   6   10.10    1.90
  -2   3   6    9.50    1.40
   2  -3   6   12.20    2.90
  -2   3   6   14.10    2.50
   2  -3   6   11.30    4.40
  -2   3   6   14.50    1.70
   2  -3   6   13.50    4.10
  -2   3   6   13.30    2.30
  -2   3   6   11.70    1.90
   2  -3   6    7.50    2.20
   2  -3   6   11.70    3.00
  -2   3   6   10.20    2.20
   2  -3   6    7.60    1.90
  -2   3   6   12.30    1.60
   2  -3   6    5.60    2.10
  -2   3   6   14.10    1.70
  -2   3   6   12.70    4.50
   2  -3   6   13.90    3.00
  -2   3   6    9.50    1.70
   2  -3   6    8.10    2.10
   2  -3   6   10.70    2.50
  -2  -3   6    9.40    2.90
   2   3   6   14.30    2.70
  -2  -3   6   11.40    3.00
  -2  -3   6    9.30    2.00
   2   3   6   10.50    1.50
   2   3   6   12.40    1.60
  -2  -3   6    9.40    2.10
   2   3   6   12.90    1.60
  -2  -3   6   10.90    3.10
  -2  -3   6    8.40    4.10
   2   3   6   11.40    1.50
   2   3   6    9.70    1.70
   2   3   6    9.70    1.30
  -2  -3   6   13.30    4.60
   2   3   6    8.90    1.50
  -2  -3   6   10.70    3.20
  -2  -3   6    7.40    3.90
  -2  -3   6   15.20    7.70
   2   3   6   13.70    2.00
   2   3   6   11.90    1.50
  -2  -3   6    9.10    2.20
  -2  -3   6    6.80    2.90
  -2  -3   6   12.40    4.00
   2   3   6   13.00    2.30
  -2  -3   6   12.00    3.30
   2   3   6   17.00    2.20
   2   3   6   11.70    1.40
   2   3   6   12.80    2.10
  -2  -3   6   13.00    4.30
   2   3   6   10.00    1.60
  -2  -3   6   10.20    2.00
  -2  -3   6   11.00    4.30
  -2  -3   6    7.70    2.00
  -2  -3   6    8.00    2.30
  -2  -3   6   12.20    4.70
  -2   4   6  121.49    7.80
  -2   4   6  121.39    7.40
  -2   4   6  113.39    7.10
   2  -4   6  117.39    9.10
   2  -4   6   95.49    7.50
   2  -4   6  100.69    8.70
   2  -4   6  134.09    9.40
   2  -4   6  109.59    8.40
  -2   4   6  118.59    7.00
  -2   4   6  118.89    7.40
  -2   4   6  122.29    7.40
  -2   4   6  118.89    7.00
  -2   4   6  119.09    7.00
  -2   4   6  108.39   12.10
  -2   4   6  115.69    7.50
   2  -4   6  127.09   13.00
  -2   4   6  105.79    9.20
   2  -4   6  122.79    8.30
   2  -4   6  103.79    8.20
  -2   4   6  118.89    7.70
  -2   4   6  112.69    7.60
  -2   4   6  118.49    7.10
   2  -4   6  114.29    7.60
   2  -4   6  131.69   12.00
  -2   4   6  116.89    7.40
  -2   4   6  122.99    7.20
  -2   4   6  117.79    8.40
  -2   4   6  123.19    8.20
  -2  -4  -6  116.89   10.70
   2  -4   6  128.69    9.40
   2  -4   6  112.69    8.30
  -2   4   6  123.39    7.80
  -2   4   6  116.19    7.00
  -2   4   6  123.69    8.00
  -2  -4   6  120.29    9.60
   2   4   6  114.39    7.30
  -2  -4   6  124.89    9.80
   2   4   6  120.99    7.20
  -2  -4   6  111.79   12.30
  -2  -4   6  129.19   11.30
  -2  -4   6  116.99    8.90
  -2  -4   6  114.99   14.50
  -2  -4   6  119.39   11.40
   2   4   6  117.99    7.20
  -2  -4   6  109.99    8.20
  -2  -4   6  117.19    8.80
   2   4   6  119.89    8.30
  -2  -4   6  121.99   10.80
  -2  -4   6  117.59    8.80
  -2  -4   6  110.69    8.00
   2   4   6  113.59    7.50
  -2  -4   6  115.89   10.30
  -2  -4   6  120.29   10.10
   2   4   6  117.79    7.00
   2   4   6  117.79    6.80
  -2  -4   6  120.99    9.70
  -2  -4   6  115.59   10.70
  -2  -4   6  113.19   10.30
   2   4   6  100.69    7.90
  -2  -4   6  116.89    7.70
   2   4   6  119.39    7.10
   2   4   6  115.19    7.80
   2   4   6  116.29    7.00
  -2  -4   6  119.09    8.20
   2   4   6  121.39    7.50
  -2  -4   6  108.49    8.80
   2   4   6  119.99    7.30
   2   4   6  121.99    7.20
  -2   5   6    1.30    2.50
  -2   5   6    5.90    1.40
  -2   5   6    1.40    1.00
  -2   5   6    6.40    2.30
  -2   5   6    4.10    1.00
  -2   5   6    2.00    1.20
   2  -5   6    2.30    1.40
  -2   5   6    1.40    0.80
   2  -5   6    2.60    2.00
  -2   5   6    7.80    1.80
   2  -5   6    2.60    2.50
  -2   5   6    2.10    0.90
  -2   5   6    5.50    1.40
   2  -5   6    1.90    1.40
   2  -5   6    7.10    3.80
  -2   5   6    3.00    1.10
  -2   5   6    1.30    0.80
   2  -5   6    1.10    1.70
   2  -5   6    5.30    2.20
  -2   5   6    1.50    1.10
  -2   5   6    1.50    0.80
   2  -5   6    0.60    1.20
   2  -5   6    3.50    2.00
  -2   5   6    7.60    1.90
  -2  -5  -6    2.00    2.50
  -2   5   6    0.40    0.90
  -2   5   6    2.90    1.00
  -2   5   6    0.40    1.40
  -2   5   6    1.70    0.70
   2  -5   6    3.30    1.50
   2  -5   6    5.30    1.90
  -2   5   6    0.90    0.90
   2  -5   6    7.20    2.60
   2  -5   6    2.80    1.10
   2  -5   6    3.10    2.00
  -2   5   6    1.30    0.80
  -2   5   6    8.10    2.00
   2  -5   6    3.70    3.20
  -2   5   6    1.80    0.90
   2   5   6    1.40    0.80
   2   5   6    1.40    1.30
   2   5   6    2.70    1.10
   2   5   6    7.00    1.70
  -2  -5   6    6.30    1.90
   2   5   6    4.70    1.00
  -2  -5   6   11.00    4.50
   2   5   6    1.50    1.00
   2   5   6    1.10    0.70
   2   5   6    1.70    0.90
   2   5   6    1.60    0.80
   2   5   6   -0.60    1.60
   2   5   6    3.60    1.00
   2   5   6    0.20    1.10
  -2  -5   6    7.50    3.30
   2   5   6    3.10    1.00
   2   5   6    4.00    1.20
   2  -5  -6    4.40    1.60
   2  -5  -6    3.70    2.00
   2   5   6    2.20    0.90
  -2   6   6   49.50    3.60
   2   6  -6   43.40    3.10
  -2   6   6   48.10    4.10
  -2   6   6   50.29    3.80
  -2   6   6   43.50    3.00
  -2   6   6   44.60    3.90
  -2   6   6   39.60    3.50
   2  -6   6   51.59    7.30
  -2   6   6   43.70    3.60
   2  -6   6   45.30    4.20
  -2   6   6   37.50    5.90
   2  -6   6   50.19    5.30
   2  -6   6   45.10    3.50
  -2   6   6   43.50    3.30
  -2   6   6   49.50    3.20
  -2   6   6   46.20    3.10
  -2   6   6   45.40    3.40
  -2   6   6   48.40    3.20
   2  -6   6   47.50    4.00
  -2   6   6   42.60    3.40
   2  -6   6   47.00    4.50
  -2  -6  -6   37.20    5.40
   2  -6   6   44.30    4.00
  -2   6   6   46.60    3.10
   2  -6   6   45.60    4.20
  -2   6   6   44.30    3.40
   2  -6   6   39.60    3.80
   2  -6   6   47.90    4.80
   2  -6   6   47.20    6.50
  -2   6   6   47.40    3.10
  -2  -6   6   49.20    5.60
   2   6   6   46.30    3.00
   2  -6  -6   45.00    4.10
  -2  -6   6   46.40    4.10
  -2  -6   6   48.70    5.30
   2   6   6   31.90    4.00
  -2  -6   6   41.90    5.90
   2   6   6   44.90    3.10
   2   6   6   46.00    3.30
  -2  -6   6   47.70    5.30
   2   6   6   45.80    3.20
   2   6   6   50.29    3.30
  -2  -6   6   42.20    7.20
   2   6   6   45.40    3.10
  -2  -6   6   44.20    4.50
   2   6   6   48.80    3.70
  -2  -6   6   47.60    5.00
   2   6   6   44.40    3.10
  -2  -6   6   46.40    4.10
  -2  -6   6   47.20    4.80
  -2  -6   6   43.50    4.50
   2   6   6   43.80    3.30
   2  -6  -6   45.30    4.00
  -2  -6   6   52.59    5.00
  -2  -6   6   38.20    4.10
   2   6   6   43.40    3.60
   2   6   6   39.40    3.40
   2   6   6   46.40    3.10
  -2  -6   6   46.70    3.70
  -2  -6   6   47.00    9.90
  -2   7   6   59.59    4.20
  -2   7   6   62.99    3.80
   2  -7   6   73.49    6.90
  -2   7   6   57.59    3.90
  -2  -7  -6   58.69    4.80
  -2   7   6   59.19    4.20
  -2   7   6   59.99    4.10
   2  -7   6   65.79    4.70
   2  -7   6   62.89    4.30
  -2   7   6   56.29    4.30
   2  -7   6   70.69    6.10
   2  -7   6   66.19    4.50
   2   7   6   56.19    4.10
   2  -7  -6   76.09    4.60
  -2  -7   6   61.09    4.20
   2   7   6   65.19    3.80
  -2  -7   6   68.79    5.10
   2   7   6   57.49    3.80
  -2   0   7    2.20    0.90
  -2   0   7    1.10    2.20
  -2   0   7   -0.20    1.90
  -2   0   7    1.40    0.90
  -2   0   7    0.20    0.60
  -2   0   7    0.50    0.90
   2   0   7    1.90    1.10
  -2   0   7    0.00    2.20
  -2   0   7    1.30    1.00
  -2   0   7    0.30    1.30
  -2   0   7    0.50    2.10
  -2   0   7    1.10    1.50
  -2   0   7    0.90    2.20
  -2   0   7    0.70    1.40
   2   1  -7  267.87   16.70
  -2   1   7  295.37   17.00
  -2   1   7  294.57   15.90
  -2   1   7  302.07   17.30
   2  -1   7  335.47   17.10
  -2   1   7  267.87   18.20
   2  -1   7  336.67   16.40
  -2   1   7  288.47   16.00
  -2   1   7  292.37   16.20
   2  -1   7  330.87   17.30
  -2   1   7  283.57   15.90
  -2   1   7  287.07   16.30
  -2   1   7  294.37   20.20
  -2   1   7  278.27   20.40
  -2   1   7  277.87   16.30
   2  -1   7  313.57   16.70
  -2   1   7  289.77   16.70
  -2   1   7  285.47   15.90
   2   1   7  277.27   15.90
  -2  -1   7  286.47   19.90
  -2  -1   7  262.37   17.60
  -2  -1   7  314.07   19.20
  -2  -1   7  264.57   18.40
  -2  -1   7  267.37   18.20
  -2  -1   7  263.07   16.20
  -2  -1   7  271.87   16.10
  -2  -1   7  301.27   19.20
  -2  -1   7  285.27   16.40
  -2  -1   7  272.37   18.60
  -2  -1   7  260.17   18.00
  -2  -1   7  306.27   17.50
  -2  -1   7  295.07   16.10
   2   1   7  283.97   16.00
  -2  -1   7  256.57   18.80
   2   1   7  273.37   16.00
  -2  -1   7  297.07   16.60
  -2  -1   7  287.77   16.80
  -2  -1   7  274.17   20.70
   2  -2   7    1.30    1.70
  -2   2   7    1.30    1.00
  -2   2   7    0.60    1.10
  -2   2   7    0.50    2.00
   2  -2   7    1.50    2.00
   2  -2   7    1.00    0.90
  -2   2   7    2.40    2.90
  -2   2   7    0.10    1.00
  -2   2   7    1.20    0.80
  -2   2   7    1.50    1.10
  -2   2   7    2.00    1.00
  -2   2   7    2.20    1.10
  -2   2   7    0.00    1.00
  -2   2   7    1.40    1.30
  -2   2   7    3.20    0.90
   2  -2   7    0.30    1.50
  -2   2   7   -0.10    0.70
   2  -2   7    4.10    1.90
  -2   2   7    4.10    1.20
   2  -2   7    0.90    1.40
  -2   2   7    0.60    1.10
  -2   2   7    0.70    1.00
   2  -2   7    3.20    1.70
   2  -2   7    1.20    1.20
   2  -2   7    2.10    2.40
  -2   2   7    1.40    0.80
  -2   2   7    0.70    1.00
   2  -2   7    0.70    1.00
  -2  -2   7    1.20    2.30
  -2  -2   7   -0.20    2.80
  -2  -2   7    0.60    1.20
  -2  -2   7    1.20    1.90
  -2  -2   7    0.80    3.70
  -2  -2   7    0.10    2.70
  -2  -2   7    1.30    1.90
   2   2   7    1.40    1.20
   2   2   7    0.60    0.80
   2   2   7    1.20    0.80
   2   2   7    1.60    0.80
  -2  -2   7    0.60    1.90
  -2  -2   7    0.70    2.50
  -2  -2   7    2.20    2.90
  -2  -2   7    0.80    1.20
   2   2   7    0.70    0.80
   2   2   7    0.60    0.80
  -2  -2   7    1.70    1.60
  -2  -2   7    0.20    0.90
  -2  -2   7    2.50    2.60
  -2  -2   7    0.60    2.10
  -2  -2   7    1.50    2.50
  -2  -2   7    0.10    3.30
   2  -2  -7    1.80    1.20
  -2  -2   7    1.20    1.30
   2   2   7    0.00    1.00
   2   2   7    0.30    0.50
   2   2   7    0.80    0.60
  -2  -2   7    0.70    1.50
   2  -3   7  156.88   10.10
   2  -3   7  116.59    8.80
   2  -3   7  137.89    8.90
  -2   3   7  138.49    9.20
  -2   3   7  142.29    8.10
  -2   3   7  138.19    8.50
  -2   3   7  126.89    8.40
   2  -3   7  107.09    8.60
   2  -3   7  147.79    9.90
   2  -3   7  140.59    8.30
  -2   3   7  134.39    8.80
  -2   3   7  126.59    7.90
  -2   3   7  114.29   12.50
   2  -3   7  136.49    9.00
  -2   3   7  131.19    7.60
  -2   3   7  128.09    8.00
  -2   3   7  130.99    7.80
  -2   3   7  130.59    7.60
  -2   3   7  134.09    8.40
  -2   3   7  132.29    8.20
   2  -3   7  110.69    9.60
  -2   3   7  127.89    8.30
   2  -3   7  144.59   12.20
  -2   3   7  133.79    8.60
  -2   3   7  122.69    7.60
  -2   3   7  127.19    8.30
  -2   3   7  129.99    7.60
  -2   3   7  128.09    7.80
  -2   3   7  123.19   10.20
   2   3   7  131.49    8.30
  -2  -3   7  118.79   11.30
   2   3   7  128.89    7.70
  -2  -3   7  137.59   11.30
   2   3   7  126.89    7.60
  -2  -3   7  124.09    9.50
   2   3   7  127.79    7.60
  -2  -3   7  126.49    9.30
  -2  -3   7  122.59    9.30
   2  -3  -7  112.89    8.10
  -2  -3   7  134.39    8.70
  -2  -3   7  133.09   12.80
   2   3   7  131.19    8.70
   2   3   7  125.09    7.60
   2   3   7  132.29    8.10
   2   3   7  123.69    7.80
  -2  -3   7  137.09    9.80
  -2  -3   7  118.89   10.60
  -2  -3   7  134.49   12.00
   2   3   7  140.49    8.00
  -2  -3   7  138.19   12.40
  -2  -3   7  134.99   10.20
  -2  -3   7  135.79   11.80
   2   3   7  135.79    9.10
  -2  -3   7  129.79    8.20
   2   3   7  134.99    7.80
  -2  -3   7  131.89   10.00
  -2  -3   7  125.19    8.40
  -2  -3   7  114.69   15.50
  -2  -3   7   98.09   11.20
  -2  -3   7  132.49   10.40
  -2   4   7   27.80    2.50
  -2   4   7   31.00    3.00
  -2   4   7   29.80    2.40
  -2   4   7   26.00    3.10
  -2   4   7   34.80    2.70
   2  -4   7   29.80    3.50
   2  -4   7   28.20    3.70
  -2   4   7   29.60    3.40
  -2   4   7   32.90    3.70
  -2   4   7   29.90    3.00
  -2   4   7   30.90    2.40
   2  -4   7   28.10    4.00
  -2   4   7   29.90    3.60
  -2   4   7   31.20    2.40
  -2   4   7   29.10    2.40
  -2   4   7   26.50    4.40
   2  -4   7   27.30    6.10
   2  -4   7   29.00    4.50
  -2   4   7   28.90    2.90
   2  -4   7   27.40    2.80
   2  -4   7   24.70    3.50
  -2   4   7   29.00    2.70
   2  -4   7   31.80    3.50
  -2   4   7   32.00    2.60
  -2   4   7   30.70    2.70
  -2  -4  -7   16.70    4.20
  -2   4   7   31.10    2.40
   2  -4   7   26.00    3.60
   2  -4   7   34.60    7.40
  -2   4   7   26.80    2.80
  -2  -4   7   25.80    3.60
   2   4   7   30.70    2.60
   2   4   7   28.90    2.40
   2   4   7   30.10    2.40
  -2  -4   7   35.30    6.00
  -2  -4   7   34.80    5.50
  -2  -4   7   27.10    3.20
   2   4   7   27.10    2.30
  -2  -4   7   25.70    7.90
  -2  -4   7   35.60    6.20
  -2  -4   7   36.50    6.20
  -2  -4   7   35.20    5.10
  -2  -4   7   27.10    3.90
  -2  -4   7   28.20    3.40
   2   4   7   25.40    3.00
   2   4   7   26.30    2.40
  -2  -4   7   31.10    4.20
  -2  -4   7   28.70    5.10
   2   4   7   31.00    2.90
  -2  -4   7   30.00    4.10
  -2  -4   7   27.20    5.60
  -2  -4   7   29.40    6.60
  -2  -4   7   29.00    3.20
   2   4   7   26.00    2.40
   2  -4  -7   26.80    3.00
   2   4   7   27.80    2.70
   2   4   7   19.30    2.80
  -2  -4   7   25.40    5.80
   2   4   7   29.00    2.40
   2   4   7   29.30    3.40
  -2   5   7   63.49    4.50
  -2   5   7   65.19    4.20
   2  -5   7   85.29    9.50
   2  -5   7   63.59    4.50
   2  -5   7   53.79    4.70
  -2   5   7   67.09    5.20
  -2   5   7   70.69    5.10
   2  -5   7   70.49    6.10
  -2   5   7   68.79    4.40
  -2   5   7   63.99    4.40
   2  -5   7   63.99    5.10
  -2   5   7   67.59    4.20
   2  -5   7   70.49    5.20
  -2   5   7   58.29    4.60
  -2   5   7   60.29    4.20
  -2   5   7   52.29    4.60
  -2   5   7   65.89    4.60
  -2   5   7   72.59    4.20
  -2   5   7   63.89    4.10
   2  -5   7   69.59    5.30
  -2   5   7   67.19    4.20
   2  -5   7   60.89    7.90
  -2   5   7   69.59    5.40
   2  -5   7   57.69    5.20
   2  -5   7   66.79    5.10
  -2   5   7   68.49    4.80
   2   5   7   69.69    4.10
  -2  -5   7   87.49    7.40
  -2  -5   7   57.29    5.10
   2   5   7   64.69    5.00
   2   5   7   75.59    4.30
  -2  -5   7   75.19    9.80
   2   5   7   64.09    4.40
  -2  -5   7   65.69    6.00
  -2  -5   7   65.19    4.60
  -2  -5   7   68.69    6.80
  -2  -5   7   57.39    6.80
  -2  -5   7   65.49    5.10
   2   5   7   69.79    4.20
  -2  -5   7   68.19    5.60
  -2  -5   7   63.49    5.60
   2   5   7   70.29    4.60
   2   5   7   60.69    4.50
  -2  -5   7   54.99    4.90
  -2  -5   7   61.19    7.70
   2   5   7   61.29    4.20
   2   5   7   70.39    4.10
  -2  -5   7   86.99    7.20
  -2  -5   7   77.29    6.30
   2  -6   7   36.20    3.20
  -2   6   7   35.00    2.80
   2  -6   7   34.40    3.10
   2  -6   7   35.00    2.60
  -2   6   7   33.00    2.80
  -2   6   7   36.80    2.70
   2  -6   7   44.60    5.70
   2  -6   7   36.10    3.00
   2  -6   7   40.10    3.10
  -2   6   7   37.00    2.40
  -2   6   7   36.50    2.40
   2  -6   7   43.40    3.20
  -2   6   7   35.00    2.60
  -2   6   7   31.70    2.80
  -2   6   7   34.10    2.40
  -2   6   7   34.10    3.00
  -2   6   7   33.70    2.40
  -2   6   7   34.00    2.50
  -2   6   7   37.00    2.40
   2   6   7   34.60    2.40
   2   6   7   33.40    2.60
   2   6   7   33.40    2.50
   2   6   7   36.60    2.40
   2   6   7   34.00    2.30
   2   6   7   36.00    2.40
   2   6   7   35.70    2.40
   2   6   7   35.20    2.80
  -2   0   8  204.88   11.40
  -2   0   8  183.68   14.80
  -2   0   8  198.68   12.20
  -2   0   8  194.68   11.90
  -2   0   8  186.98   11.20
  -2   0   8  196.68   15.40
  -2   0   8  196.88   11.10
  -2   0   8  163.38   13.10
  -2   1   8  348.87   23.60
  -2   1   8  341.07   18.80
  -2   1   8  327.97   18.40
  -2   1   8  341.67   19.80
  -2   1   8  351.36   18.80
  -2   1   8  334.37   18.90
  -2   1   8  342.47   18.50
  -2   1   8  344.77   18.90
  -2  -1   8  342.87   19.30
  -2  -1   8  339.07   18.70
  -2  -1   8  320.77   19.60
  -2  -1   8  325.67   20.40
  -2  -1   8  329.47   18.90
  -2  -1   8  327.67   22.30
  -2  -1   8  336.07   20.90
  -2  -1   8  318.67   20.70
  -2   2   8  156.58    9.80
   2  -2   8  153.28    9.40
  -2   2   8  139.19    8.40
   2  -2   8  143.39    9.20
   2  -2   8  160.48    8.80
  -2   2   8  143.79    8.60
  -2   2   8  144.59    8.30
  -2   2   8  146.09    8.20
  -2   2   8  146.59    8.80
  -2   2   8  143.99   13.30
  -2   2   8  145.29    9.00
  -2   2   8  142.69    8.90
  -2  -2   8  141.89   10.30
  -2  -2   8  135.59    9.00
   2   2   8  143.19    8.40
  -2  -2   8  130.59    8.70
   2   2   8  136.89    8.30
  -2  -2   8  131.19   11.50
  -2  -2   8  127.09    8.50
  -2  -2   8  136.99   10.30
  -2  -2   8  131.79   12.10
  -2  -2   8  139.59   10.00
  -2   3   8   18.20    1.80
  -2   3   8   16.70    2.20
  -2   3   8   16.90    1.70
  -2   3   8   17.70    2.00
  -2   3   8   17.00    1.90
   2  -3   8   14.20    2.50
  -2   3   8   12.00    2.20
   2  -3   8   16.80    2.50
   2  -3   8   18.20    2.70
   2  -3   8   17.80    2.20
  -2   3   8   19.60    2.50
  -2   3   8   18.60    1.90
  -2   3   8   20.60    3.30
  -2   3   8   17.30    1.90
  -2  -3   8   22.40    2.40
  -2  -3   8   21.20    3.40
  -2  -3   8   11.70    2.80
   2   3   8   18.20    1.80
  -2  -3   8   16.10    4.50
  -2  -3   8   15.70    3.20
   2   3   8   18.50    2.60
   2   3   8   17.30    2.20
   2   3   8   20.10    1.80
  -2  -3   8    6.00    3.60
   2   3   8   19.00    1.80
  -2  -3   8   17.50    4.30
  -2  -3   8   14.40    2.30
   2   3   8   17.80    1.70
  -2  -3   8   10.30    4.30
  -2  -3   8   15.90    2.50
  -2   4   8   15.70    1.70
  -2   4   8   18.20    1.60
  -2   4   8   19.00    2.20
  -2   4   8   11.70    2.40
  -2   4   8   19.90    1.90
   2  -4   8   13.40    2.10
  -2   4   8   19.30    1.60
  -2   4   8   19.40    1.70
   2  -4   8   17.00    2.00
  -2   4   8   17.60    1.70
  -2   4   8   17.10    2.00
   2  -4   8   11.40    2.40
   2  -4   8   14.50    2.20
  -2   4   8   18.10    1.60
  -2   4   8   18.50    1.80
   2  -4   8   18.80    2.50
   2   4   8   14.40    1.50
  -2  -4   8   16.80    2.00
  -2  -4   8    8.00    4.90
   2   4   8   17.00    1.60
  -2  -4   8   16.80    4.00
   2   4   8   16.50    2.10
   2   4   8   18.20    1.80
   2   4   8   18.80    1.60
  -2  -4   8   18.90    3.00
   2   4   8   17.30    1.60
  -2  -4   8   20.40    2.60
  -2  -4   8    9.80    3.10
  -2  -4   8   14.80    3.70
  -2  -4   8   18.90    2.80
   2   4   8   13.90    1.80
  -2  -4   8   19.00    2.90
  -2  -4   8   16.10    3.70
   3   0   0   -0.10    0.20
   3   0   0    0.80    0.60
  -3   0   0    0.60    0.60
  -3   0   0   -0.10    0.60
  -3   0   0    0.20    0.80
   3   0   0    2.00    0.60
   3   1   0 3627.44  207.38
   3  -1   0 4132.09  209.28
   3  -1   0 3647.33  207.78
  -3  -1   0 4282.27  208.68
  -3   1   0 4054.19  209.58
   3   1   0 3771.32  208.38
  -3   1   0 4123.59  208.68
  -3  -1   0 3799.62  208.58
  -3   1   0 4377.66  211.78
   3  -1   0 3864.01  210.48
   3   1   0 4098.39  212.08
  -3  -1   0 3818.22  208.98
   3  -2   0    0.60    0.50
   3   2   0    0.40    0.40
  -3  -2   0    0.30    0.60
   3  -2   0    0.30    0.50
  -3  -2   0    0.50    1.00
   3  -2   0    1.60    0.70
  -3   2   0    0.50    0.90
  -3   2   0    0.20    0.90
  -3  -3   0  405.16   25.10
   3   3   0  477.25   24.40
   3   3   0  451.55   23.60
  -3  -3   0  453.45   25.10
   3  -3   0  421.96   23.90
  -3   3   0  459.75   25.50
   3   3   0  434.06   23.10
  -3   3   0  465.45   24.70
   3  -3   0  399.56   24.00
   3  -3   0  431.06   23.30
  -3  -3   0  365.96   24.10
  -3   4   0    0.90    1.30
  -3  -4   0    5.00    1.70
  -3  -4   0    1.00    1.50
  -3  -4   0    0.20    1.70
  -3   4   0    4.20    1.90
  -3  -4   0    0.00    1.70
   3   5   0  240.58   13.00
   3   5   0  231.28   13.00
   3  -5   0  215.28   13.30
  -3  -5   0  196.38   15.30
   3  -5   0  223.48   13.80
   3  -5   0  222.48   13.20
  -3  -5   0  236.28   16.30
   3  -5   0  243.78   14.60
  -3   5   0  239.28   13.90
  -3  -5   0  239.58   16.00
  -3  -5   0  187.38   20.10
   3   5   0  239.58   13.10
  -3  -5   0  256.17   16.00
   3   5   0  239.58   13.20
   3   5   0  258.27   13.70
   3  -5   0  222.98   13.70
   3  -5   0  245.68   14.10
   3   5   0  234.38   14.50
   3  -5   0  230.38   14.40
   3  -5   0  218.18   13.50
   3  -6   0    0.20    1.20
  -3   6   0    0.80    2.00
   3   6   0    0.20    0.80
   3  -6   0    0.00    1.40
  -3  -6   0    0.00    2.20
  -3  -6   0   -0.20    3.60
   3  -6   0   -0.10    0.90
   3   6   0   -0.20    0.70
  -3  -6   0    0.40    2.30
  -3  -6   0    1.30    2.50
   3   6   0   -0.50    0.70
   3   6   0    1.20    0.90
   3  -6   0   -0.30    0.90
  -3  -6   0   -2.50    4.80
   3   6   0    0.40    1.20
   3  -6   0   -0.60    1.00
   3  -6   0    0.60    1.10
   3  -6   0   -0.20    1.40
  -3  -6   0   -1.20    2.50
   3  -6   0   -0.50    1.20
  -3  -7   0  188.98   13.90
   3  -7   0  189.78   11.10
   3  -7   0  184.88   12.40
   3  -7   0  191.18   11.40
  -3  -7   0  169.38   16.00
   3   7   0  191.98   10.90
  -3  -7   0  175.28   13.40
   3  -7   0  193.18   11.80
  -3  -7   0  165.28   18.60
   3   7   0  185.38   11.50
   3  -7   0  213.58   12.90
   3   7   0  185.88   10.50
   3   7   0  188.68   11.10
   3   7   0  191.88   10.90
  -3  -7   0  170.58   13.00
   3  -7   0  200.38   11.80
   3  -7   0  190.68   10.90
   3  -8   0   -0.30    1.20
   3  -8   0   -0.30    1.20
   3  -8   0    0.20    1.10
   3   8   0    0.50    0.80
  -3  -8   0    0.30    2.00
  -3  -8   0    1.00    1.60
  -3  -8   0    2.00    4.00
   3   8   0    0.00    0.70
   3  -8   0    0.10    0.90
   3   8   0    0.30    0.90
   3   8   0    0.50    0.80
  -3  -8   0    0.60    2.90
   3  -8   0    0.60    1.40
  -3   8   0    0.20    0.70
  -3   0  -1    2.00    0.80
  -3   0   1    1.30    0.80
  -3   0  -1    0.00    0.70
  -3   0   1    0.50    0.80
  -3   0   1    0.20    0.90
  -3   0   1    0.70    0.70
   3  -1   1  433.46   25.80
  -3   1   1  494.85   27.50
   3  -1   1  420.76   26.20
  -3   1   1  528.75   26.20
  -3   1   1  564.44   26.90
   3  -1   1  469.25   26.20
   3   1  -1  462.15   26.00
  -3  -1  -1  498.45   26.70
   3  -1   1  472.05   25.90
   3   1  -1  424.76   26.30
   3  -1   1  530.45   27.00
   3   1  -1  463.15   25.70
  -3   1   1  514.65   27.50
   3  -1   1  471.15   26.20
  -3  -1  -1  486.55   26.20
   3   1  -1  433.16   25.70
  -3   1   1  541.25   26.70
  -3  -1  -1  540.65   27.00
   3   1   1  497.85   26.10
   3   1   1  418.86   26.70
   3   1   1  491.65   25.80
  -3  -1   1  489.05   27.20
  -3  -1   1  478.45   26.40
   3  -1  -1  436.36   26.00
  -3   1  -1  507.55   26.80
  -3  -1   1  541.95   26.70
   3   1   1  531.05   26.60
  -3  -1   1  469.55   27.60
  -3  -1   1  510.45   26.50
  -3  -1   1  564.54   27.00
   3  -1  -1  427.76   26.40
   3   1   1  468.35   25.80
   3   1   1  517.95   25.90
   3  -1  -1  434.56   25.80
  -3   2   1  350.96   18.20
   3  -2   1  373.86   18.60
  -3   2   1  331.07   18.30
  -3  -2  -1  320.37   19.20
   3   2  -1  321.37   18.00
   3  -2   1  283.57   18.30
   3  -2   1  351.46   19.40
  -3   2   1  346.37   20.00
   3  -2   1  361.16   18.70
   3  -2   1  299.67   17.90
  -3   2   1  353.26   18.90
  -3   2   1  340.57   19.80
   3  -2   1  324.77   18.40
   3   2  -1  307.37   17.60
   3  -2   1  291.57   18.40
   3  -2  -1  300.57   17.90
   3   2   1  357.46   19.10
   3   2   1  354.16   18.70
   3   2   1  331.37   18.10
   3   2   1  333.77   17.90
  -3  -2   1  322.57   19.40
  -3   2  -1  350.96   19.00
   3   2   1  325.67   17.70
  -3  -2   1  302.27   19.70
  -3  -2   1  358.26   18.70
  -3  -2   1  341.47   19.70
   3   2   1  337.77   17.80
  -3  -2   1  367.86   18.90
  -3  -2   1  319.47   19.80
   3   2   1  339.67   18.40
   3  -2  -1  290.57   18.30
  -3   3   1 2840.72  150.48
   3  -3   1 2840.52  151.98
  -3   3   1 2934.71  151.08
  -3   3   1 2736.43  149.99
   3  -3   1 3226.88  150.78
  -3   3   1 2794.52  149.99
   3   3  -1 2926.21  150.18
  -3  -3  -1 2707.03  151.78
  -3   3   1 3037.90  152.88
   3  -3   1 2595.44  149.99
  -3   3   1 2916.71  150.28
   3  -3   1 2687.23  150.68
   3  -3   1 2950.50  150.78
   3  -3   1 3203.58  150.88
   3  -3   1 2492.95  150.58
  -3   3   1 2993.00  152.28
   3   3   1 2925.81  149.99
   3   3   1 3073.29  150.98
   3  -3  -1 2719.43  149.88
   3   3   1 2934.11  149.79
  -3  -3   1 2626.74  151.58
  -3  -3   1 2607.14  151.98
   3   3   1 2976.80  151.28
  -3  -3   1 2828.22  151.78
   3   3   1 2817.22  149.99
   3   3   1 2975.70  150.18
  -3  -3   1 2844.92  151.98
   3   3   1 2798.42  149.79
  -3  -3   1 2966.90  151.28
   3   3   1 3045.50  150.48
   3  -3  -1 2597.44  150.68
  -3  -4  -1    6.00    2.00
   3   4  -1    7.00    1.10
  -3   4   1    6.70    2.80
  -3   4   1    5.30    1.40
   3  -4   1    7.30    1.90
   3  -4   1    6.00    1.60
  -3  -4  -1    6.30    2.20
  -3  -4  -1    9.00    2.90
  -3  -4  -1    7.80    2.80
   3   4  -1    5.90    1.60
   3  -4   1    6.60    1.60
   3   4  -1    4.40    1.10
  -3  -4   1   12.60    3.10
   3   4   1    5.10    1.10
  -3  -4   1   10.10    2.90
  -3  -4   1    6.90    2.50
   3   4   1    6.70    1.80
   3   4   1    5.40    1.10
  -3   5   1   63.49    4.90
  -3  -5  -1   52.19    6.50
  -3  -5  -1   46.10   11.10
   3  -5   1   65.59    5.40
   3  -5   1   65.79    5.10
  -3  -5  -1   45.10    8.20
  -3   5   1   64.79    3.90
   3   5  -1   60.29    5.20
   3  -5   1   57.49    4.70
   3   5  -1   60.49    4.20
   3  -5   1   58.49    4.60
  -3   5   1   60.19    4.00
   3  -5   1   59.49    4.60
   3  -5   1   64.49    5.00
   3  -5   1   58.19    4.70
   3   5  -1   59.99    4.10
  -3   5   1   61.19    6.90
  -3  -5  -1   61.69    6.40
   3  -5   1   54.79    4.20
  -3  -5  -1   55.79    5.90
   3   5  -1   63.19    4.50
  -3  -5  -1   57.49    6.70
   3  -5   1   54.39    5.30
   3   5  -1   68.49    4.10
   3  -5  -1   52.09    4.70
   3  -5  -1   56.99    4.40
  -3  -5   1   45.00    8.50
  -3  -5   1   58.59    6.20
   3   5   1   61.29    4.40
   3  -5  -1   64.79    4.10
   3   5   1   69.19    4.30
   3  -5  -1   63.49    5.00
  -3  -5   1   51.79    4.80
  -3  -5   1   64.69    6.20
  -3  -5   1   57.09    6.70
  -3  -5   1   41.40   10.50
   3  -5  -1   59.89    5.30
   3   5   1   60.49    5.40
   3  -5  -1   55.49    4.80
  -3  -5   1   49.30    6.60
  -3  -5   1   64.29    9.80
  -3   5  -1   66.69    5.70
   3  -5  -1   56.59    4.30
   3   5   1   59.49    4.40
   3   5   1   61.89    3.80
  -3  -5   1   60.09    6.60
  -3  -5   1   56.49    7.20
   3  -5  -1   55.79    4.60
   3   5   1   60.39    4.00
   3   5   1   63.59    4.60
   3   5   1   58.59    4.20
   3   5   1   59.49    4.20
  -3  -6  -1    1.10    2.60
  -3  -6  -1    2.20    2.70
   3   6  -1    2.30    1.10
   3  -6   1    2.50    1.40
   3  -6   1    1.10    1.50
  -3   6   1    1.30    1.20
  -3   6   1    0.30    0.80
  -3  -6  -1    1.00    3.60
   3  -6   1    2.90    1.20
   3  -6   1    3.80    1.80
  -3  -6  -1    4.80    2.50
   3  -6   1    1.50    1.30
   3  -6   1    2.30    1.40
  -3  -6  -1    2.10    2.00
   3  -6   1    0.60    1.10
   3   6  -1    1.00    0.80
  -3  -6  -1    1.50    5.20
   3  -6   1    1.40    2.40
   3   6  -1    2.30    1.00
   3   6  -1    1.10    0.80
   3  -6  -1    3.90    1.40
   3  -6  -1    1.50    1.30
   3  -6  -1    1.70    1.30
  -3  -6   1    0.50    3.30
   3  -6  -1    1.00    1.30
   3  -6  -1    0.50    1.10
  -3  -6   1    2.30    4.60
   3   6   1    2.30    1.00
  -3  -6   1    1.10    2.70
   3   6   1    1.70    0.70
   3   6   1    1.30    0.90
  -3  -6   1    1.40    2.80
   3   6   1    0.50    1.00
   3   6   1    2.60    1.00
   3  -6  -1    2.00    1.60
   3   6   1    1.80    1.20
   3  -6  -1    1.30    1.60
   3   6   1    3.90    1.30
  -3   6  -1    1.90    1.40
  -3  -6   1   -0.40    2.20
   3  -7   1  473.75   26.60
   3   7  -1  413.06   26.10
  -3  -7  -1  543.15   32.80
  -3  -7  -1  551.34   29.30
   3  -7   1  453.85   27.10
   3  -7   1  456.45   25.80
   3  -7   1  476.35   26.40
   3   7  -1  459.35   25.60
  -3  -7  -1  540.85   27.30
  -3  -7  -1  557.04   28.70
  -3   7   1  452.35   25.50
   3   7  -1  463.05   25.60
   3   7  -1  460.25   25.80
   3  -7   1  505.55   27.60
   3  -7   1  466.15   26.10
   3  -7  -1  476.65   26.00
   3  -7  -1  461.45   26.50
   3   7   1  523.25   25.80
   3   7   1  499.05   25.40
   3  -7  -1  478.25   27.60
  -3  -7   1  412.76   33.60
   3   7   1  481.95   25.70
   3   7   1  443.46   26.90
  -3  -7   1  468.25   28.70
   3   7   1  472.65   25.90
   3   7   1  475.05   25.70
   3  -7  -1  427.06   26.90
   3   7   1  452.85   26.40
   3  -7  -1  475.25   26.30
  -3  -7   1  417.46   28.00
  -3  -7   1  401.06   30.30
   3  -7  -1  459.85   26.50
   3  -7  -1  473.75   25.80
  -3   8   1  292.97   21.10
   3   8  -1  342.77   19.00
  -3  -8  -1  326.77   23.50
  -3  -8  -1  351.16   26.30
   3  -8   1  348.37   19.30
   3   8  -1  352.86   19.00
  -3  -8  -1  336.67   20.70
   3  -8   1  370.96   20.30
   3  -8   1  366.96   19.70
  -3   8   1  331.27   18.80
   3   8  -1  344.77   19.20
   3  -8   1  364.86   19.60
  -3  -8  -1  346.27   21.30
   3  -8  -1  362.36   19.20
  -3  -8   1  327.37   22.90
   3   8   1  353.26   19.10
   3   8   1  347.77   18.80
   3  -8  -1  340.17   20.10
  -3  -8   1  340.97   21.00
   3   8   1  334.87   19.00
   3   8   1  342.17   19.20
  -3  -8   1  311.97   19.40
   3  -8  -1  378.36   19.70
   3  -8  -1  355.06   19.70
   3  -8  -1  381.16   19.50
   3  -8  -1  365.46   19.00
   3   8   1  343.67   19.00
  -3  -8   1  356.76   25.90
  -3  -8   1  342.17   20.40
   3   0  -2 1668.93   98.69
   3   0  -2 1694.33   98.69
  -3   0   2 2020.70   99.59
  -3   0   2 1968.10   99.69
   3   0   2 1673.63   98.99
  -3   0   2 1818.52  100.59
  -3   0   2 2150.08   99.09
  -3   0  -2 1943.51   99.59
   3   0   2 1815.32   98.69
   3   0   2 1825.82   98.99
   3   0   2 1995.60   99.59
   3   0   2 2037.60   99.59
   3   0   2 1848.52   98.69
   3  -1   2  512.35   28.80
  -3   1   2  548.15   28.60
   3   1  -2  444.86   28.10
   3  -1   2  544.85   29.40
  -3   1   2  602.54   28.60
  -3   1   2  612.34   29.40
  -3   1   2  520.95   29.10
   3   1  -2  510.75   28.50
   3  -1   2  525.85   28.50
  -3   1   2  519.85   30.30
  -3  -1  -2  512.65   29.10
   3  -1   2  477.85   28.30
   3  -1   2  555.04   29.30
   3  -1   2  498.45   28.90
  -3   1   2  524.35   29.00
  -3   1   2  548.85   30.80
  -3  -1   2  588.94   29.60
  -3  -1   2  608.64   30.00
  -3  -1   2  551.24   29.30
  -3  -1   2  483.65   30.00
   3   1   2  564.64   28.60
   3   1   2  526.55   28.60
   3   1   2  476.55   28.80
  -3  -1   2  572.24   28.90
   3   1   2  573.34   29.10
   3  -1  -2  474.75   28.30
   3   1   2  454.75   28.30
   3   1   2  518.65   28.60
   3   1   2  525.55   28.30
  -3   1  -2  559.84   29.40
  -3  -1   2  574.94   29.70
   3   1   2  544.35   29.60
  -3   2   2  177.28   11.70
   3  -2   2  159.88   10.50
  -3   2   2  170.88    9.40
   3  -2   2  147.19    9.70
  -3   2   2  157.08    9.40
  -3   2   2  170.38   10.10
  -3  -2  -2  177.08   10.60
   3  -2   2  171.28   10.00
   3  -2   2  174.98   10.00
  -3   2   2  174.38    9.40
  -3   2   2  174.28   10.30
   3  -2   2  159.28    9.30
   3   2  -2  161.48    9.40
  -3   2   2  162.38    9.80
   3  -2   2  174.38   10.20
  -3  -2   2  158.78    9.90
  -3   2  -2  174.68   10.30
  -3  -2   2  159.98   11.10
   3   2   2  168.58    9.90
   3  -2  -2  144.89    9.20
   3   2   2  161.28    9.30
   3   2   2  158.38    9.10
   3   2   2  145.29   10.50
   3   2   2  142.29    9.80
   3   2   2  166.58    9.30
   3   2   2  156.58    9.10
  -3  -2   2  167.68   10.80
  -3  -2   2  147.09   10.90
  -3  -2   2  180.88   10.40
  -3  -2   2  146.79   10.90
  -3  -2   2  183.08   10.60
  -3  -2   2  176.08   12.20
  -3  -2   2  199.28   12.20
   3   2   2  168.18    9.40
  -3   3   2   -0.80    2.00
  -3  -3  -2    1.40    1.60
   3  -3   2    1.00    0.90
  -3   3   2    0.30    0.50
   3  -3   2    4.00    1.40
   3  -3   2   -0.20    0.70
   3   3  -2    0.50    0.50
  -3   3   2    1.80    0.70
  -3   3   2    1.40    0.60
  -3   3   2    0.20    1.40
   3  -3   2    0.70    0.60
   3  -3   2    2.80    1.10
   3  -3   2    0.30    1.10
  -3  -3   2    1.60    1.40
  -3  -3   2    2.20    1.70
   3   3   2    0.80    0.50
  -3  -3   2    0.30    1.40
   3   3   2    1.30    0.80
   3   3   2    4.10    1.70
   3   3   2    0.50    0.60
  -3  -3   2    0.70    1.10
  -3  -3   2   -0.70    1.40
  -3  -3   2   -0.30    0.80
   3   3   2    3.40    1.10
  -3   3  -2    1.60    1.20
   3  -3  -2    0.10    1.00
  -3  -3   2   -1.40    1.60
  -3  -3   2    0.70    1.60
   3   3   2    0.60    0.40
   3   3   2    1.10    0.60
  -3   4   2   44.60    3.40
  -3   4   2   44.50    4.30
  -3   4   2   47.60    6.60
   3   4  -2   49.80    3.60
  -3   4   2   48.40    4.10
  -3  -4  -2   52.49    5.90
   3  -4   2   41.70    4.30
   3  -4   2   46.80    5.30
   3  -4   2   49.70    4.40
   3  -4   2   46.10    4.50
  -3   4   2   51.99    3.70
   3  -4   2   57.99    4.70
   3  -4   2   49.50    4.30
   3   4  -2   49.40    4.20
  -3   4   2   42.20    3.40
   3   4   2   51.49    4.80
   3   4   2   48.20    4.20
  -3  -4   2   49.99    5.60
   3  -4  -2   41.20    4.40
  -3  -4   2   46.30    5.90
  -3  -4   2   37.20    5.60
   3   4   2   47.70    3.50
   3   4   2   52.59    4.10
  -3  -4   2   52.49    5.40
   3  -4  -2   49.10    3.50
   3   4   2   49.20    3.50
   3   4   2   49.40    3.20
  -3  -4   2   50.59    5.00
   3   5  -2   66.49    4.50
  -3  -5  -2   58.39   13.90
  -3   5   2   66.39    4.70
  -3   5   2   70.69    4.40
  -3   5   2   66.69    4.90
   3   5  -2   67.39    5.60
  -3   5   2   67.49    4.40
   3  -5   2   66.49    4.90
   3  -5   2   76.89    6.10
   3  -5   2   78.59    5.60
   3  -5   2   77.49    6.10
  -3  -5  -2   66.09    6.90
  -3  -5  -2   62.99    6.60
  -3   5   2   67.09    4.60
  -3  -5  -2   60.19    7.50
   3  -5   2   59.79    5.20
   3  -5   2   68.09    7.40
  -3  -5  -2   64.69    7.10
  -3   5   2   64.89    5.40
   3  -5   2   63.99    5.20
   3   5  -2   69.09    4.80
   3  -5   2   62.59    5.60
   3  -5   2   72.89    5.30
   3  -5   2   65.99    5.20
  -3   5   2   63.99    4.20
  -3   5   2   66.49    5.00
  -3   5   2   66.69    4.50
   3  -5   2   70.39    5.10
   3   5  -2   65.39    4.40
  -3   5   2   65.69    4.40
   3  -5   2   71.59    6.00
   3  -5   2   72.69    5.90
   3   5  -2   69.39    4.40
  -3   5   2   68.89    8.30
  -3  -5   2   58.89    7.20
   3  -5  -2   58.39    5.10
   3   5   2   71.79    4.70
  -3  -5   2   64.59    5.40
  -3  -5   2   62.79    7.20
   3   5   2   68.39    4.30
  -3  -5   2   62.59    5.40
   3   5   2   64.69    4.80
  -3  -5   2   63.89    6.80
   3   5   2   72.89    5.30
   3  -5  -2   61.49    4.70
   3   5   2   67.29    4.80
  -3  -5   2   68.09    7.50
   3   5   2   63.39    5.10
  -3  -5   2   48.30   11.30
  -3  -5   2   53.59    9.30
  -3  -5   2   63.89    7.10
   3   5   2   65.69    4.30
   3   5   2   58.49    4.90
  -3  -5   2   69.39    9.50
   3   5   2   66.09    4.50
  -3  -5   2   67.09    6.90
   3  -5  -2   63.39    5.80
   3  -5  -2   60.59    5.00
  -3  -5   2   64.69    7.00
   3   5   2   63.29    6.00
   3   5   2   72.59    4.80
   3   5   2   69.79    4.20
  -3  -5   2   55.09    7.40
   3  -5  -2   57.39    4.80
  -3  -5   2   63.69   10.10
   3   5   2   72.69    6.20
   3  -5  -2   67.99    4.60
   3   5   2   69.29    4.60
   3  -6   2  445.86   23.90
  -3   6   2  417.36   22.70
   3  -6   2  488.35   25.10
   3  -6   2  450.95   23.80
   3  -6   2  468.35   24.60
   3   6  -2  396.06   23.20
   3  -6   2  442.96   23.60
  -3   6   2  423.36   23.40
   3  -6   2  434.86   23.70
  -3  -6  -2  381.36   25.60
  -3  -6  -2  345.57   28.50
  -3  -6  -2  384.66   25.90
  -3  -6  -2  353.76   31.50
  -3  -6  -2  379.36   25.50
   3  -6   2  463.75   23.70
  -3   6   2  389.96   22.60
   3  -6   2  457.65   26.90
   3  -6   2  464.85   23.40
  -3   6   2  418.46   23.10
  -3   6   2  409.56   22.60
  -3   6   2  453.55   26.50
  -3   6   2  388.96   24.10
   3   6  -2  428.06   22.80
   3   6  -2  419.86   22.80
   3  -6   2  449.26   24.60
  -3   6   2  419.46   22.90
   3   6  -2  426.96   23.00
  -3   6   2  403.76   24.40
   3   6   2  419.06   22.60
  -3  -6   2  432.06   26.20
   3  -6  -2  388.46   23.70
   3   6   2  416.26   23.30
  -3  -6   2  384.86   25.50
   3  -6  -2  401.56   23.70
   3   6   2  439.86   23.10
   3  -6  -2  417.76   24.80
  -3  -6   2  352.96   30.80
   3   6   2  428.36   22.70
  -3  -6   2  370.16   23.40
   3   6   2  399.26   23.70
   3   6   2  419.96   22.90
   3  -6  -2  411.76   23.40
  -3  -6   2  430.46   26.30
   3   6   2  418.06   24.70
   3   6   2  416.46   23.10
   3  -6  -2  433.36   22.90
  -3   6  -2  425.76   25.00
  -3  -6   2  432.66   30.90
   3  -6  -2  412.26   23.10
  -3  -6   2  413.66   25.50
   3   6   2  407.86   22.50
   3   6   2  432.46   23.30
  -3  -6   2  401.06   26.20
   3  -6  -2  408.06   23.60
   3   6   2  409.76   23.00
  -3  -6   2  367.46   28.00
   3   7  -2   83.79    5.50
   3   7  -2   89.79    5.50
  -3  -7  -2   72.69   10.40
  -3  -7  -2   71.69    8.10
  -3   7   2   86.79    5.70
   3  -7   2   95.79    7.20
  -3   7   2   77.29    7.80
  -3  -7  -2   76.79    6.70
   3  -7   2   92.19    6.00
   3  -7   2   91.19    6.30
  -3   7   2   84.09    5.40
  -3  -7  -2   75.79    8.10
   3  -7   2   92.09    6.90
   3   7  -2   88.39    5.60
  -3  -7  -2   88.09    8.10
  -3  -7  -2   82.59   14.70
   3  -7   2   94.59    8.80
   3  -7   2   93.99    6.50
   3  -7   2   95.89    7.20
  -3  -7  -2   77.99    7.00
  -3   7   2   88.89    6.00
  -3   7   2   77.59    6.50
  -3  -7   2   77.09    6.10
   3  -7  -2   84.39    6.40
   3  -7  -2   89.39    6.00
   3  -7  -2   88.79    7.20
   3   7   2   71.79    6.50
  -3  -7   2   77.29    9.60
   3   7   2   81.59    5.60
  -3  -7   2   78.79   12.40
   3   7   2   83.89    5.20
   3  -7  -2   89.89    6.20
  -3  -7   2   82.89    8.00
   3   7   2   83.39    5.80
   3   7   2   85.39    5.50
   3  -7  -2   89.79    5.80
  -3  -7   2   84.29    8.20
   3   7   2   82.29    5.80
  -3  -7   2   80.29    7.70
   3  -7  -2   87.59    6.40
  -3   7  -2   99.39    6.50
   3   7   2   86.09    5.70
   3   7   2   88.49    5.30
   3   7   2   77.99    6.20
  -3   8   2  214.98   12.10
   3  -8   2  235.58   12.70
  -3   8   2  198.48   13.60
   3  -8   2  231.38   12.30
   3   8  -2  209.78   12.10
  -3  -8  -2  217.48   13.00
  -3   8   2  203.78   12.10
  -3  -8  -2  209.08   14.20
   3   8  -2  214.68   12.30
   3  -8   2  236.48   13.40
  -3   8   2  215.38   11.90
   3  -8   2  238.08   12.80
  -3  -8  -2  208.08   18.70
  -3   8   2  205.78   12.40
  -3  -8  -2  208.78   16.40
   3  -8   2  230.28   14.60
  -3  -8  -2  210.68   13.90
   3   8  -2  216.88   12.10
  -3  -8  -2  214.58   12.90
  -3   8   2  179.58   14.10
   3   8   2  216.58   12.00
  -3  -8   2  201.88   13.70
   3  -8  -2  230.48   12.20
   3   8   2  211.38   11.80
   3  -8  -2  247.28   12.70
   3   8   2  204.98   12.10
   3   8   2  212.78   12.10
  -3  -8   2  205.78   12.60
   3   8   2  202.38   12.30
   3  -8  -2  229.68   12.40
   3  -8  -2  230.38   12.80
   3  -8  -2  230.38   12.80
   3   8   2  224.58   12.30
   3   8   2  216.38   12.20
  -3  -8   2  211.38   13.10
  -3  -8   2  216.08   15.50
  -3  -8   2  219.28   13.50
  -3  -8   2  224.88   18.10
   3   8   2  208.48   12.40
  -3   0   3    0.50    0.70
  -3   0   3   -0.20    1.70
   3   0   3    0.10    0.50
   3   0   3   -0.10    0.80
   3   0   3    0.00    0.60
  -3   0  -3    0.20    0.70
  -3   0   3    0.40    0.40
   3   0   3    1.70    0.60
  -3   0   3    0.40    0.80
   3   0   3    0.80    0.60
   3   0  -3    0.20    0.40
   3   0   3    0.70    0.40
  -3   0   3    0.20    0.90
   3   0   3    0.20    0.40
  -3   0   3    1.00    1.40
   3  -1   3  824.82   42.60
   3  -1   3  809.52   42.80
  -3   1   3  740.93   44.90
  -3   1   3  817.12   42.10
   3  -1   3  786.12   41.90
   3  -1   3  789.02   41.90
  -3   1   3  851.11   42.00
  -3   1   3  781.72   43.00
  -3   1   3  792.02   42.80
   3  -1   3  822.82   42.90
  -3   1   3  844.02   42.80
  -3  -1   3  811.82   43.10
  -3  -1   3  659.93   43.60
   3   1   3  782.72   42.10
   3   1   3  838.32   42.50
  -3  -1   3  838.12   43.30
  -3   1  -3  852.41   43.00
  -3  -1   3  711.33   44.20
   3   1   3  806.62   42.10
   3  -1  -3  670.53   41.80
   3   1   3  758.52   41.80
  -3  -1   3  795.92   43.40
  -3  -1   3  828.02   43.40
  -3  -1   3  703.13   44.00
  -3  -1   3  730.33   43.50
   3   1   3  745.33   42.00
  -3  -1   3  877.61   42.30
   3   1   3  771.42   41.80
   3  -2   3 1163.58   63.49
  -3  -2  -3 1349.07   63.79
   3   2  -3 1194.28   62.19
   3  -2   3 1223.18   63.19
   3  -2   3 1232.88   63.09
   3  -2   3 1059.79   61.99
  -3   2   3 1204.08   62.99
  -3   2   3 1181.88   62.19
  -3   2   3 1204.08   63.49
  -3   2   3 1149.78   65.49
   3  -2   3 1166.18   62.19
   3  -2   3 1175.98   62.99
  -3   2   3 1153.28   62.39
   3  -2   3 1095.69   62.69
  -3   2   3 1225.88   62.09
  -3   2   3 1198.08   62.89
  -3  -2   3 1202.58   62.69
  -3  -2   3 1066.09   64.29
   3   2   3 1188.58   63.89
  -3  -2   3  994.50   64.09
   3   2   3 1182.78   61.89
   3   2   3 1207.48   62.69
  -3  -2   3 1059.49   63.89
  -3  -2   3 1227.98   63.59
   3  -2  -3 1073.79   61.99
   3   2   3 1178.58   62.19
   3   2   3 1126.69   61.89
   3   2   3 1172.28   62.89
  -3  -2   3 1226.68   63.89
   3   2   3 1169.78   62.29
   3   2   3 1245.88   62.19
  -3  -2   3 1225.08   63.99
   3   3  -3  105.09    6.40
   3  -3   3  109.09    7.40
  -3   3   3  107.89    6.40
  -3   3   3  104.59    7.20
   3  -3   3   94.29    7.80
  -3   3   3  105.09    6.40
  -3   3   3  102.09    6.60
  -3   3   3  119.79    8.50
  -3   3   3  105.39   10.40
   3  -3   3   84.39    6.90
  -3  -3  -3  109.19    8.20
   3  -3   3  105.29    7.30
  -3   3   3  103.19    7.10
   3  -3   3  114.39    7.50
   3   3   3   95.09    8.20
   3  -3  -3   99.79    6.30
   3   3   3  106.49    7.00
  -3  -3   3  107.89    7.90
  -3  -3   3   90.89    7.10
  -3  -3   3  105.09    9.30
  -3  -3   3  105.29    8.20
  -3  -3   3   96.49    9.40
   3   3   3  105.49    6.50
  -3  -3   3   82.79    8.20
   3   3   3  104.59    6.50
   3   3   3  112.19    6.40
   3   3   3   99.79    7.30
   3   3   3  110.69    6.10
  -3  -3   3  100.29    8.50
   3  -4   3  239.68   14.40
   3  -4   3  239.18   14.10
   3  -4   3  224.08   14.30
  -3   4   3  236.28   13.20
  -3   4   3  248.78   13.30
  -3   4   3  241.08   13.80
  -3   4   3  232.88   13.40
  -3   4   3  236.88   13.30
  -3   4   3  245.28   13.60
  -3  -4  -3  237.98   16.00
  -3   4   3  234.18   13.60
  -3   4   3  242.28   13.40
   3  -4   3  227.68   16.40
   3  -4   3  223.78   14.70
  -3   4   3  241.78   13.30
  -3   4   3  224.28   14.70
  -3   4   3  248.28   14.10
   3  -4   3  216.88   14.40
  -3   4   3  251.37   13.80
   3  -4   3  256.17   18.40
  -3   4   3  244.08   14.80
   3  -4   3  232.68   14.80
   3  -4   3  239.78   14.60
  -3   4   3  247.58   13.50
   3  -4   3  244.88   14.70
   3  -4   3  248.18   13.80
   3  -4   3  199.18   14.50
   3  -4   3  257.77   15.20
   3  -4   3  240.48   15.30
  -3   4   3  252.87   13.70
  -3   4   3  236.08   13.50
   3  -4   3  227.28   14.30
  -3   4   3  244.98   13.50
  -3   4   3  265.87   16.80
   3  -4   3  219.08   14.40
   3  -4   3  227.08   16.00
   3  -4   3  271.27   15.20
  -3   4   3  246.08   13.90
  -3   4   3  222.88   13.90
   3  -4   3  247.58   15.00
   3  -4   3  241.98   14.20
  -3   4   3  235.48   13.40
   3   4  -3  244.68   13.80
  -3   4   3  243.98   13.50
  -3   4   3  238.08   13.70
  -3   4   3  224.08   13.20
  -3   4   3  249.97   13.70
   3  -4  -3  201.18   14.00
   3   4   3  236.88   13.30
  -3  -4   3  231.88   21.00
   3   4   3  241.08   13.40
  -3  -4   3  256.77   17.00
   3   4   3  243.58   16.10
  -3  -4   3  251.27   17.30
   3   4   3  248.38   13.80
  -3  -4   3  251.67   14.20
  -3  -4   3  214.88   16.60
  -3  -4   3  230.28   16.90
  -3  -4   3  248.68   15.00
  -3  -4   3  253.07   14.60
  -3  -4   3  228.28   14.40
   3  -4  -3  211.08   14.60
   3   4   3  238.18   13.60
  -3  -4   3  246.98   15.40
  -3  -4   3  254.67   13.90
   3   4   3  238.38   13.60
  -3  -4   3  248.58   15.50
  -3   4  -3  277.07   15.50
   3   4   3  233.18   13.30
   3  -4  -3  250.17   13.80
   3   4   3  241.88   14.60
  -3  -4   3  216.58   16.70
   3   4   3  251.17   13.70
   3   4   3  235.88   13.30
  -3  -4   3  271.57   17.80
  -3  -4   3  246.58   15.50
  -3  -4   3  244.18   15.50
   3   4   3  243.98   14.10
   3   4   3  249.88   14.00
   3   4   3  252.37   13.20
   3   4   3  250.37   13.40
   3   4   3  254.37   13.50
   3   4   3  243.38   13.30
  -3  -4   3  219.38   15.90
   3   4   3  238.88   14.10
  -3  -4   3  234.08   16.10
  -3  -4   3  242.28   15.70
  -3  -4   3  248.18   14.90
   3   4   3  251.57   14.90
   3   4   3  238.98   13.90
   3   4   3  233.38   13.60
   3   4   3  245.28   13.60
  -3  -4   3  256.57   14.50
   3   4   3  235.78   13.40
  -3  -4   3  272.27   19.70
   3  -5   3  291.27   18.70
   3  -5   3  324.07   19.20
  -3   5   3  300.37   17.10
   3  -5   3  296.47   18.60
  -3  -5  -3  318.47   20.40
  -3   5   3  294.07   17.30
  -3   5   3  308.67   17.30
   3  -5   3  302.97   18.10
   3  -5   3  309.57   18.80
  -3   5   3  321.07   17.10
   3  -5   3  298.17   18.30
  -3   5   3  306.77   17.60
  -3  -5  -3  249.68   26.80
  -3   5   3  307.37   16.90
   3  -5   3  340.37   18.70
   3   5  -3  314.67   17.10
  -3   5   3  305.87   17.20
   3  -5   3  337.67   18.50
  -3  -5  -3  304.27   20.10
  -3   5   3  323.57   17.10
   3  -5   3  326.07   19.30
   3   5  -3  302.97   17.50
  -3   5   3  302.97   16.90
  -3   5   3  311.17   17.40
   3   5  -3  285.67   18.50
   3  -5   3  301.87   22.00
  -3   5   3  261.47   17.50
   3  -5   3  323.37   17.50
   3  -5   3  305.27   20.70
   3  -5   3  311.67   17.90
   3  -5   3  301.57   18.20
  -3   5   3  299.67   18.60
   3  -5   3  296.57   18.10
   3  -5   3  281.27   18.50
  -3   5   3  310.17   17.10
  -3   5   3  309.47   17.10
   3   5  -3  313.47   17.20
  -3   5   3  331.47   20.90
   3  -5   3  311.97   18.30
  -3   5   3  306.47   17.30
  -3   5   3  318.07   17.80
  -3   5   3  305.07   17.50
  -3  -5   3  316.37   25.20
   3  -5  -3  291.27   18.70
   3   5   3  303.97   17.00
  -3  -5   3  319.07   18.60
   3   5   3  314.97   17.00
  -3  -5   3  324.57   24.00
   3   5   3  306.47   16.90
   3   5   3  316.67   17.60
  -3  -5   3  316.67   21.00
  -3  -5   3  327.77   18.20
   3   5   3  319.37   17.40
   3   5   3  312.17   17.30
   3   5   3  308.17   17.10
  -3  -5   3  321.87   20.20
   3   5   3  316.27   16.70
  -3  -5   3  310.67   20.40
   3   5   3  308.87   16.90
  -3  -5   3  305.57   18.40
   3   5   3  307.27   17.10
  -3  -5   3  275.47   26.70
  -3  -5   3  287.37   21.00
   3   5   3  315.27   17.80
   3   5   3  268.07   17.80
   3  -5  -3  342.87   17.50
  -3  -5   3  318.67   17.60
   3   5   3  306.67   17.20
  -3  -5   3  334.37   20.90
   3   5   3  321.27   17.50
   3   5   3  333.97   18.50
   3   5   3  307.17   17.00
   3   5   3  299.17   18.60
  -3  -5   3  324.67   21.60
   3  -5  -3  286.87   17.90
   3   5   3  320.67   17.40
  -3  -5   3  292.87   20.50
   3  -5  -3  285.57   17.70
  -3   5  -3  339.47   19.40
  -3  -5   3  317.27   20.10
  -3  -5   3  315.27   19.90
   3   5   3  314.17   17.30
   3   5   3  323.57   17.50
   3   5   3  311.77   16.90
  -3  -5   3  318.87   20.80
   3  -6   3  587.04   34.40
  -3  -6  -3  509.05   33.40
  -3   6   3  588.94   34.40
  -3   6   3  527.25   32.00
  -3  -6  -3  458.25   39.20
  -3   6   3  572.04   30.30
   3   6  -3  573.94   30.30
  -3   6   3  589.54   30.30
  -3   6   3  571.94   30.40
  -3   6   3  553.34   30.80
   3  -6   3  597.04   31.50
   3  -6   3  625.94   36.30
   3  -6   3  607.74   31.50
   3   6  -3  568.84   30.40
   3  -6   3  620.84   31.80
  -3  -6  -3  500.85   33.40
  -3   6   3  564.84   30.40
  -3   6   3  569.34   30.70
   3  -6   3  617.94   32.70
   3  -6   3  598.94   31.40
   3   6  -3  574.44   30.50
   3  -6   3  609.74   32.20
   3  -6   3  608.54   31.30
  -3   6   3  551.04   30.60
  -3   6   3  548.05   30.20
   3   6  -3  497.45   30.70
   3  -6   3  570.74   31.40
  -3   6   3  568.74   30.30
   3  -6   3  572.84   32.10
   3  -6   3  571.24   31.50
  -3   6   3  573.34   31.10
   3  -6  -3  530.15   32.20
   3   6   3  586.74   31.00
  -3  -6   3  560.44   33.80
  -3  -6   3  551.04   33.50
  -3  -6   3  526.25   31.40
   3   6   3  531.75   30.70
   3   6   3  549.05   31.20
  -3  -6   3  561.34   30.80
   3   6   3  592.54   30.40
   3   6   3  565.14   30.80
   3  -6  -3  543.35   31.20
  -3  -6   3  601.64   39.00
   3   6   3  558.54   31.00
   3   6   3  540.25   30.50
  -3   6  -3  558.74   32.50
   3   6   3  548.85   31.50
   3  -6  -3  562.34   30.80
   3  -6  -3  545.95   31.00
  -3  -6   3  564.44   33.60
  -3  -6   3  560.54   33.30
  -3  -6   3  551.94   32.90
   3   6   3  551.44   30.20
   3   6   3  590.54   30.40
   3  -6  -3  600.34   30.70
  -3  -6   3  527.45   39.40
  -3  -6   3  555.74   33.80
   3   6   3  580.64   30.70
   3   6   3  540.35   30.10
  -3  -6   3  566.74   33.80
  -3  -6   3  542.35   36.30
   3   6   3  496.45   32.40
   3  -6  -3  512.15   31.10
   3  -7   3    4.20    1.90
   3  -7   3    5.90    2.80
  -3   7   3    4.90    1.50
  -3  -7  -3    2.60    2.50
   3  -7   3    4.70    1.60
   3   7  -3    4.40    1.10
   3  -7   3    5.20    1.70
  -3   7   3    3.10    1.10
   3  -7   3    4.50    1.80
  -3  -7  -3    2.70    2.80
   3   7  -3    4.50    1.10
  -3  -7  -3    2.20    2.70
  -3   7   3    5.20    2.20
  -3  -7  -3    1.10    3.70
  -3   7   3    4.00    1.70
  -3   7   3    5.20    1.50
   3  -7   3    4.10    1.50
  -3   7   3    4.00    1.00
   3  -7   3    4.30    1.90
   3   7  -3    4.70    1.20
  -3   7   3    3.00    2.10
  -3   7   3    3.20    1.00
  -3   7   3    4.70    1.40
  -3  -7  -3    2.10    6.60
  -3  -7  -3    5.00    2.50
   3  -7   3    4.60    1.60
   3  -7  -3    4.80    1.50
  -3  -7   3    7.30    2.90
   3  -7  -3    4.60    1.70
   3   7   3    5.10    1.30
  -3  -7   3    4.50    2.70
   3   7   3    2.80    0.80
   3  -7  -3    4.70    1.70
   3   7   3    3.50    0.90
   3   7   3    4.00    1.40
  -3  -7   3    4.70    3.00
  -3   7  -3    4.90    1.70
  -3  -7   3    4.60    2.40
   3  -7  -3    2.30    1.90
   3   7   3    3.40    1.20
   3   7   3    3.50    0.90
   3   7   3    5.60    1.40
   3   7   3    2.50    1.20
   3   7   3    5.80    1.30
   3   7   3    3.40    1.10
   3   7   3    7.80    1.70
  -3  -7   3    4.80    2.10
  -3  -7   3    3.50    2.70
  -3  -7   3    2.70    2.20
  -3  -7   3    3.80    1.70
  -3  -7   3    5.00    4.20
  -3  -7   3    3.40    4.20
   3  -7  -3    4.40    1.40
   3   7   3    4.00    0.90
   3   7   3    5.10    1.70
  -3  -8  -3    0.30    1.30
   3  -8   3    0.50    0.80
  -3  -8  -3    1.90    1.90
  -3   8   3    0.10    1.10
   3   8  -3    0.50    0.70
  -3  -8  -3    1.20    1.40
  -3   8   3    0.20    0.60
  -3  -8  -3   -0.20    1.80
  -3   8   3    0.80    1.30
   3  -8   3    0.20    1.20
  -3   8   3   -0.70    0.80
   3   8  -3    0.60    0.70
   3  -8   3    0.70    0.90
   3  -8   3    1.30    1.50
   3   8  -3   -0.20    0.60
  -3   8   3    0.00    0.80
  -3  -8  -3    0.30    2.30
  -3   8   3    1.10    0.70
   3  -8   3   -0.50    1.00
   3   8   3    0.20    0.70
  -3  -8   3    0.00    1.40
   3  -8  -3    0.20    0.80
   3   8   3   -0.40    0.70
   3  -8  -3    0.60    0.80
   3   8   3    1.10    0.70
   3   8   3    1.30    0.60
  -3  -8   3    0.80    1.10
  -3  -8   3    0.90    2.50
  -3  -8   3    0.90    1.30
   3  -8  -3    0.70    1.00
  -3  -8   3    0.60    2.00
  -3  -8   3    0.50    1.30
   3   8   3    0.30    0.50
   3   8   3    0.40    0.50
   3  -8  -3    0.80    1.10
  -3   0   4  762.52   37.70
  -3   0   4  724.13   39.20
  -3   0   4  607.44   39.70
  -3   0   4  608.54   40.50
   3   0   4  726.03   37.70
   3   0   4  696.83   37.60
  -3   0  -4  721.03   38.60
   3   0   4  688.23   38.00
  -3   0   4  715.73   39.60
   3   0   4  725.43   38.00
   3   0  -4  611.34   37.40
  -3   0   4  739.43   38.80
   3   0   4  705.83   38.60
  -3   0   4  756.12   39.20
   3   0   4  766.82   38.40
  -3   1   4  892.01   46.70
  -3   1   4  911.11   47.90
   3  -1   4  868.71   46.50
  -3   1   4  829.02   50.29
   3  -1   4  868.71   47.50
  -3   1   4  934.71   46.50
   3  -1   4  882.01   47.60
  -3   1   4  896.11   48.20
  -3   1   4  879.21   48.60
  -3   1   4  899.11   47.40
   3  -1   4  887.51   46.90
   3  -1   4  928.71   46.60
   3   1   4  834.12   46.40
  -3  -1   4  854.81   48.50
   3   1   4  927.11   47.10
   3  -1  -4  778.82   46.40
   3   1   4  843.02   46.50
  -3  -1   4  806.72   49.40
   3   1   4  890.21   46.80
  -3  -1   4  923.91   46.70
  -3  -1   4  927.31   48.30
   3   1   4  840.82   46.40
   3   1   4  889.41   46.80
  -3  -1   4  724.03   49.00
  -3  -1   4  882.11   48.10
  -3  -1   4  894.11   48.20
   3  -2   4   47.80    4.30
  -3   2   4   46.20    3.20
   3  -2   4   43.60    4.30
  -3   2   4   44.60    3.90
   3  -2   4   46.20    3.40
  -3   2   4   41.30    6.20
  -3   2   4   46.30    4.20
  -3   2   4   43.40    5.20
   3  -2   4   45.70    3.80
  -3   2   4   45.40    3.40
  -3  -2  -4   48.50    4.90
   3  -2   4   50.69    4.50
  -3   2   4   45.00    4.90
   3   2  -4   42.60    3.40
   3  -2   4   46.90    4.10
  -3  -2   4   42.00    5.10
  -3  -2   4   45.50    4.70
   3   2   4   45.00    3.70
   3   2   4   45.40    3.30
   3   2   4   49.20    3.20
  -3  -2   4   52.39    5.20
   3   2   4   48.00    3.50
  -3  -2   4   46.40    4.90
   3   2   4   45.30    3.60
  -3  -2   4   37.10    5.50
  -3  -2   4   41.10    6.30
   3  -2  -4   43.10    3.30
  -3  -2   4   44.60    3.80
  -3  -2   4   39.00    5.70
  -3   3   4  370.56   20.00
   3   3  -4  360.36   20.50
  -3   3   4  405.56   23.90
   3  -3   4  408.66   22.00
  -3   3   4  348.27   20.00
   3  -3   4  372.96   20.50
   3  -3   4  366.46   21.10
  -3   3   4  400.36   24.00
   3  -3   4  341.57   23.00
  -3   3   4  360.26   20.90
   3  -3   4  364.36   21.00
  -3   3   4  394.06   20.40
  -3   3   4  346.87   21.60
  -3   3   4  316.17   22.80
   3  -3   4  363.06   24.90
  -3  -3  -4  408.86   22.80
   3  -3   4  360.06   21.30
  -3   3   4  363.66   20.10
  -3   3   4  380.06   20.40
   3  -3   4  413.46   22.00
  -3   3   4  375.76   21.50
  -3   3   4  380.86   21.00
   3  -3   4  358.76   21.50
  -3   3   4  381.36   20.70
  -3   3   4  378.26   20.20
  -3   3   4  379.56   21.00
  -3   3   4  376.36   20.10
   3  -3   4  344.87   21.20
   3  -3   4  347.97   22.20
   3  -3   4  390.66   21.90
  -3   3   4  379.36   20.70
   3  -3   4  320.47   21.50
  -3   3   4  366.06   20.00
  -3   3   4  377.96   20.30
   3  -3   4  341.77   21.30
  -3   3   4  298.67   22.80
   3  -3   4  354.06   21.00
  -3   3   4  379.26   20.30
   3  -3   4  363.66   20.90
  -3   3   4  383.06   20.40
  -3   3   4  375.26   20.50
  -3   3   4  369.76   20.30
   3  -3   4  335.27   21.00
  -3   3   4  390.36   20.60
  -3   3   4  383.76   20.50
  -3   3   4  368.86   20.00
  -3   3   4  368.96   20.00
   3   3   4  363.96   20.00
   3   3   4  370.96   20.10
   3   3   4  347.47   20.20
  -3  -3   4  382.36   21.00
  -3  -3   4  433.76   26.20
   3   3   4  371.56   19.90
   3   3   4  339.37   20.60
  -3  -3   4  361.56   23.00
   3   3   4  385.56   21.20
   3   3   4  316.27   21.50
  -3  -3   4  393.06   22.70
   3   3   4  360.86   20.20
  -3  -3   4  348.67   24.30
  -3  -3   4  360.66   24.90
  -3  -3   4  355.06   21.70
   3  -3  -4  355.66   20.40
   3   3   4  364.46   20.40
  -3  -3   4  417.06   24.30
   3   3   4  352.36   20.40
  -3  -3   4  406.66   22.10
   3   3   4  331.67   21.70
   3   3   4  388.76   20.80
   3   3   4  373.86   20.30
   3   3   4  392.46   21.20
  -3  -3   4  395.56   21.70
   3   3   4  364.06   20.20
   3   3   4  365.36   20.40
  -3  -3   4  415.26   20.50
   3   3   4  369.06   20.40
   3   3   4  365.26   20.10
   3   3   4  353.56   20.60
  -3  -3   4  319.07   21.10
  -3  -3   4  394.16   20.90
  -3  -3   4  382.86   20.90
  -3  -3   4  361.96   22.30
  -3  -3   4  382.96   20.60
  -3  -3   4  336.57   24.00
   3   3   4  401.16   20.40
   3   3   4  375.86   20.20
   3   3   4  320.97   20.80
  -3  -3   4  416.26   22.50
  -3  -3   4  369.26   22.10
   3   3   4  370.96   20.00
  -3  -3   4  412.26   20.90
  -3  -3   4  384.06   21.90
  -3  -3   4  375.26   30.00
  -3  -3   4  359.76   23.30
  -3  -3   4  368.46   22.20
   3   3   4  375.16   20.20
  -3  -3   4  351.16   23.20
   3   3   4  340.27   20.50
  -3   4   4  174.28   10.00
   3  -4   4  170.58   13.10
  -3   4   4  172.58    9.70
   3  -4   4  174.38   11.10
  -3   4   4  175.28   10.10
  -3   4   4  171.68   10.40
  -3   4   4  173.38    9.70
  -3   4   4  159.58   11.20
   3  -4   4  151.78   10.80
   3   4  -4  165.48   10.20
  -3   4   4  173.48   10.00
  -3   4   4  165.98   10.20
  -3   4   4  165.88   11.40
  -3   4   4  143.89   13.20
   3  -4   4  192.28   12.30
  -3   4   4  172.68    9.70
   3  -4   4  194.98   11.80
  -3   4   4  176.48   10.30
   3  -4   4  178.38   11.20
   3  -4   4  176.88   11.50
   3  -4   4  142.89   10.90
   3  -4   4  169.58   10.80
  -3   4   4  174.78   10.70
  -3   4   4  182.78   14.10
  -3   4   4  169.68    9.80
   3  -4   4  170.48   10.50
  -3   4   4  170.18    9.90
  -3   4   4  177.48    9.80
  -3   4   4  170.98   10.30
   3  -4   4  157.58   12.30
   3  -4   4  174.18   11.70
  -3   4   4  172.58   10.00
   3  -4   4  168.08   10.70
  -3   4   4  157.98   10.60
  -3   4   4  177.48   10.30
  -3   4   4  171.28   10.00
  -3   4   4  182.38   13.80
  -3   4   4  155.48    9.70
  -3   4   4  170.78   10.40
   3  -4   4  174.08   11.10
   3  -4   4  185.78   11.90
  -3   4   4  171.28    9.90
   3  -4   4  168.48   11.20
   3  -4   4  171.78   10.20
  -3  -4  -4  168.68   12.70
  -3   4   4  178.18   10.10
   3   4   4  174.68   11.10
  -3  -4   4  162.48   10.80
   3   4   4  158.38   10.30
  -3  -4   4  163.58   11.40
   3   4   4  172.18   10.20
   3   4   4  177.18    9.90
   3   4   4  176.88   10.20
   3   4   4  179.68   10.10
  -3  -4   4  162.98   13.90
  -3  -4   4  164.38   12.70
  -3  -4   4  175.48   11.30
  -3  -4   4  175.18   12.00
  -3  -4   4  182.58   12.70
  -3  -4   4  190.08   14.20
  -3  -4   4  182.88   10.40
  -3  -4   4  191.18   16.10
  -3  -4   4  169.68   13.70
   3   4   4  175.18    9.80
   3   4   4  176.28    9.60
  -3  -4   4  183.38   12.20
   3   4   4  176.78   10.20
  -3  -4   4  174.58   14.50
   3   4   4  136.39   11.40
   3   4   4  180.38   10.50
  -3  -4   4  171.58   17.80
  -3  -4   4  135.09   11.20
  -3  -4   4  175.48   10.90
   3  -4  -4  174.18   10.30
   3   4   4  175.18    9.90
   3   4   4  150.18   11.60
   3  -4  -4  152.98   10.90
   3   4   4  167.18    9.80
  -3  -4   4  178.38   10.70
   3   4   4  182.48   10.90
   3   4   4  149.49   10.30
   3   4   4  178.68   10.10
  -3  -4   4  169.28   12.00
   3   4   4  171.58    9.80
  -3  -4   4  179.08   12.30
  -3  -4   4  198.68   12.40
  -3  -4   4  167.48   12.90
   3   4   4  166.08    9.70
  -3  -4   4  157.28   13.50
  -3  -4   4  169.58   10.40
   3   4   4  172.38   10.00
  -3  -4   4  181.98   11.60
   3   4   4  146.09   10.50
  -3  -4   4  185.08   10.90
  -3   4  -4  201.08   12.30
   3  -5   4   22.50    4.10
  -3   5   4   17.20    2.10
   3   5  -4   14.10    1.90
  -3   5   4   14.80    2.10
  -3   5   4   13.80    1.90
  -3   5   4   13.30    2.00
  -3  -5  -4    7.20    9.30
  -3   5   4   13.30    1.70
   3  -5   4   15.30    3.20
  -3   5   4   31.90    6.20
  -3   5   4   15.20    1.60
  -3   5   4   14.60    2.00
   3  -5   4   17.20    2.40
  -3   5   4   16.70    1.60
  -3   5   4   16.30    1.80
  -3   5   4   14.20    1.90
   3  -5   4   16.40    3.20
  -3   5   4   14.00    2.00
   3  -5   4   18.50    3.10
   3  -5   4   14.90    3.10
  -3   5   4   15.50    2.80
   3  -5   4   13.40    2.60
   3  -5   4   16.00    5.20
   3  -5   4   17.10    2.90
  -3   5   4   16.40    2.10
   3  -5   4   10.30    2.50
  -3   5   4   15.70    1.70
  -3  -5  -4   15.40    4.30
   3  -5   4   19.50    3.20
   3  -5   4   20.90    3.30
  -3   5   4   15.50    2.50
  -3   5   4   15.20    1.90
  -3   5   4   10.20    2.50
  -3   5   4   14.80    2.30
   3  -5   4   21.30    3.60
   3  -5   4   21.40    3.10
   3  -5   4   17.60    2.90
  -3   5   4   19.20    2.50
   3   5  -4   12.80    1.90
   3  -5   4   15.30    3.20
  -3   5   4   15.40    4.10
   3  -5   4   12.20    3.60
  -3   5   4   15.40    1.70
  -3   5   4   14.20    1.90
  -3   5   4   15.40    1.70
  -3  -5   4   15.40    3.00
  -3  -5   4    7.80    7.40
  -3  -5   4   14.20    5.40
  -3  -5   4   17.90    3.30
   3   5   4   15.00    1.70
  -3  -5   4    9.90    4.10
   3   5   4   16.70    2.40
   3   5   4   15.40    1.90
  -3   5  -4   22.20    3.90
   3   5   4   15.00    1.80
  -3  -5   4   23.80    4.80
  -3  -5   4   17.10    4.70
   3   5   4   21.90    2.50
   3  -5  -4   17.20    2.30
  -3  -5   4   16.50    6.80
   3   5   4    8.60    2.20
  -3  -5   4   17.00    3.60
   3   5   4   15.60    1.90
  -3  -5   4    9.00    2.70
  -3  -5   4   13.40    2.30
  -3  -5   4   21.50    4.20
   3   5   4   15.60    1.70
   3   5   4   16.90    1.80
   3   5   4   14.70    1.70
  -3  -5   4   21.90    3.90
  -3  -5   4   18.10    3.70
   3   5   4   16.50    1.80
   3   5   4   15.20    1.50
   3   5   4   14.20    1.60
  -3  -5   4   15.20    4.60
   3   5   4   15.60    1.80
  -3  -5   4   12.50    2.50
   3   5   4   15.20    2.10
  -3  -5   4   11.60    3.70
   3  -5  -4   15.20    2.70
  -3  -5   4   16.40    4.90
  -3  -5   4   22.50    5.00
   3   5   4   15.30    1.90
  -3  -5   4   10.20    2.60
  -3  -5   4   13.90    2.60
   3   5   4   17.80    2.00
  -3  -5   4   12.90    3.20
  -3  -5   4   12.50    3.90
  -3  -5   4   14.50    4.00
   3   5   4   15.40    1.90
  -3  -5   4   12.30    4.30
   3   5   4    7.90    1.80
   3   5   4   21.30    3.50
  -3  -5   4   17.80    3.10
  -3   6   4   24.40    2.70
   3   6  -4   23.80    2.30
  -3   6   4   23.50    3.30
  -3   6   4   24.30    2.30
   3  -6   4   26.10    3.50
   3  -6   4   25.10    4.10
   3  -6   4   27.90    5.10
  -3  -6  -4   17.80    4.50
  -3   6   4   25.30    2.40
  -3  -6  -4   20.50    6.90
  -3   6   4   24.20    2.30
  -3   6   4   21.90    2.60
  -3   6   4   24.20    4.50
   3  -6   4   23.90    3.30
   3  -6   4   29.60    3.50
  -3   6   4   25.20    2.40
   3  -6   4   28.60    7.00
  -3   6   4   26.60    2.20
  -3   6   4   30.30    5.70
   3  -6   4   25.70    3.50
  -3   6   4   24.20    2.80
  -3   6   4   23.20    2.40
  -3   6   4   30.10    2.60
  -3  -6  -4   21.90    4.70
   3  -6   4   27.60    2.60
   3  -6   4   25.30    3.30
  -3  -6  -4   14.10    8.70
   3  -6   4   29.50    4.40
   3   6  -4   23.80    2.40
   3  -6   4   24.10    3.50
   3  -6   4   25.10    3.70
   3  -6   4   25.00    3.20
  -3   6   4   25.70    2.90
  -3   6   4   22.60    2.40
  -3   6   4   27.30    2.30
   3  -6   4   25.30    3.10
  -3   6   4   25.60    2.20
  -3   6   4   26.10    2.80
   3   6  -4   24.80    2.40
  -3  -6   4   22.20    4.50
   3  -6  -4   27.50    2.70
   3  -6  -4   26.10    3.20
   3   6   4   36.10    2.90
   3   6   4   25.90    2.50
  -3  -6   4   22.30    4.10
   3   6   4   26.30    2.20
   3   6   4   26.30    2.30
   3  -6  -4   25.50    3.10
  -3  -6   4   22.30    2.90
  -3  -6   4   24.30    3.50
  -3  -6   4   25.30    3.60
  -3   6  -4   24.60    4.30
   3   6   4   27.50    2.40
   3   6   4   23.30    2.70
   3   6   4   23.60    2.70
  -3  -6   4   23.60    4.90
   3   6   4   23.30    2.30
   3   6   4   25.20    2.10
   3   6   4   25.70    3.10
  -3  -6   4   26.10    4.80
  -3  -6   4   29.80    7.40
  -3  -6   4   24.70    4.90
  -3  -6   4   19.00    3.00
   3   6   4   26.20    2.20
  -3  -6   4   25.00    4.40
  -3  -6   4   22.30    7.80
  -3  -6   4   29.50    4.00
   3   6   4   25.00    2.60
   3   6   4   25.00    2.20
  -3  -6   4   25.40    3.60
   3   6   4   24.30    2.10
  -3  -6   4   23.10    6.90
  -3  -6   4   21.80    5.10
   3  -6  -4   25.70    2.90
   3   6   4   31.30    3.50
  -3  -6   4   20.50    4.40
   3   6   4   27.50    2.50
  -3  -7  -4    1.90    2.90
   3  -7   4    3.80    1.70
  -3   7   4    3.60    0.90
   3  -7   4    5.90    2.60
  -3  -7  -4    0.00    3.40
   3  -7   4    5.10    1.30
   3  -7   4    5.80    3.10
   3  -7   4    3.60    1.50
  -3   7   4    3.40    1.30
   3  -7   4    2.60    1.60
  -3   7   4    3.70    0.80
  -3   7   4    5.00    1.10
  -3  -7  -4    3.60    2.80
  -3  -7  -4    1.40    2.20
  -3   7   4    3.00    2.10
   3  -7   4    4.10    1.40
  -3   7   4    3.20    0.90
  -3   7   4    5.50    1.20
   3  -7   4    3.00    1.40
   3  -7   4    3.10    1.40
  -3   7   4    3.50    1.90
  -3   7   4    4.90    1.10
  -3   7   4    3.90    1.20
  -3   7   4    3.50    1.30
   3   7   4    3.20    0.90
   3  -7  -4    3.30    1.30
   3   7   4    2.90    1.20
  -3  -7   4    5.10    1.60
  -3  -7   4    3.30    2.20
   3   7   4    6.00    1.40
  -3  -7   4    1.70    2.10
   3  -7  -4    2.60    1.20
  -3  -7   4    5.00    3.90
   3   7   4    4.10    0.80
   3   7   4    4.60    0.90
   3  -7  -4    4.60    1.60
   3   7   4    4.60    1.20
  -3  -7   4    5.40    2.40
   3   7   4    5.90    1.20
  -3  -7   4    4.20    1.80
   3   7   4    4.10    0.90
  -3  -7   4    2.30    3.40
   3   7   4    5.30    1.10
  -3  -7   4    4.30    2.50
  -3  -7   4    3.10    1.80
   3   8  -4    1.30    0.70
   3  -8   4    0.70    0.90
  -3   8   4    0.60    1.10
  -3   8   4    0.40    0.60
  -3  -8  -4    4.00    1.60
  -3  -8   4    0.30    1.20
   3  -8  -4    1.20    0.80
  -3  -8   4    0.20    0.90
   3  -8  -4    0.60    0.70
   3   0   5    0.20    0.70
  -3   0   5    0.90    0.70
   3   0   5    0.40    0.90
   3   0   5   -0.30    0.60
  -3   0   5   -0.30    0.80
   3   0   5   -0.20    0.60
  -3   0   5   -1.30    1.00
   3   0   5    1.10    0.70
   3   0   5    0.20    0.90
   3   0   5    0.50    0.70
   3   0   5    1.50    0.70
  -3   0   5   -0.60    1.80
  -3   0   5    0.20    0.80
  -3   0   5    9.90    3.10
  -3   0   5   -0.10    0.70
  -3   0   5    4.70    2.20
  -3   0   5    0.60    0.70
  -3   0   5    5.30    2.60
  -3   0   5    0.20    1.70
  -3   0   5   -0.80    1.70
  -3   0   5    0.70    0.90
   3   0   5    0.20    0.90
   3   0   5    2.20    1.00
  -3   0   5   -0.10    1.00
  -3   0   5    0.00    1.00
   3   0   5    0.60    0.80
  -3   0   5    8.50    3.30
   3   0   5    2.20    1.20
   3   0   5    0.10    0.60
   3   0   5   -0.20    0.60
   3   0   5    0.50    0.90
  -3   0   5    0.60    1.90
  -3   0   5    2.90    0.90
   3   0   5    0.30    0.60
  -3   0   5    5.00    1.50
   3   0   5    1.90    0.90
  -3   0   5    4.00    1.10
  -3   0   5    2.40    2.40
  -3   0   5    0.10    1.80
   3   0   5    0.50    1.30
   3   0   5    1.40    1.50
   3   0   5    1.20    0.70
  -3   0   5    5.40    2.30
   3   0   5    2.10    0.80
  -3   0   5    1.40    0.70
  -3   0   5    0.20    0.80
  -3   1   5  673.73   34.50
  -3   1   5  681.53   34.70
  -3   1   5  652.73   34.10
  -3   1   5  655.43   36.60
  -3   1   5  661.23   34.00
  -3   1   5  670.53   34.30
   3  -1   5  601.34   34.40
  -3   1   5  633.84   34.10
  -3   1   5  583.24   38.40
  -3   1   5  659.03   34.00
   3  -1   5  652.43   36.90
  -3   1   5  653.33   36.20
  -3   1   5  718.83   38.40
   3  -1   5  592.34   34.30
   3  -1   5  619.84   34.30
   3  -1   5  590.64   34.00
   3  -1   5  597.74   34.70
  -3   1   5  635.94   34.20
   3  -1   5  626.84   34.20
  -3   1   5  652.73   34.60
  -3   1   5  662.63   34.20
   3  -1   5  655.63   35.50
   3  -1   5  651.73   34.70
  -3   1   5  645.44   33.90
  -3   1   5  645.94   34.40
   3  -1   5  607.64   34.90
   3  -1   5  672.03   35.30
   3  -1   5  597.74   34.30
   3  -1   5  629.94   34.20
   3  -1   5  614.84   34.20
   3  -1   5  690.03   34.30
  -3   1   5  652.23   34.50
  -3   1   5  678.03   35.00
  -3   1   5  667.43   36.10
   3  -1   5  663.43   35.10
  -3   1   5  617.14   37.10
  -3   1   5  691.53   37.30
  -3   1   5  652.53   36.50
  -3   1   5  644.24   33.90
   3  -1   5  611.74   34.50
   3  -1   5  684.53   39.00
  -3   1   5  651.43   34.20
  -3   1   5  619.64   36.60
  -3   1   5  643.64   35.30
  -3   1   5  663.73   35.90
   3   1   5  615.64   34.00
  -3  -1   5  649.74   34.40
  -3  -1   5  604.44   39.30
   3   1   5  608.94   34.50
  -3  -1   5  598.44   37.60
   3   1   5  630.74   34.10
  -3  -1   5  658.83   34.40
  -3  -1   5  657.63   36.00
   3   1   5  595.84   33.90
   3   1   5  596.54   34.00
  -3  -1   5  695.73   37.60
   3   1   5  609.74   34.20
  -3  -1   5  586.84   36.00
   3   1   5  655.53   34.50
  -3  -1   5  646.24   36.30
   3   1   5  592.54   33.90
   3   1   5  587.04   34.50
  -3  -1   5  617.44   35.30
   3   1   5  623.34   33.80
   3   1   5  580.34   34.00
   3   1   5  588.64   34.30
   3   1   5  593.34   33.90
  -3  -1   5  582.24   36.40
   3   1   5  626.64   34.40
   3   1   5  593.34   34.10
   3   1   5  594.24   34.10
  -3  -1   5  646.84   34.00
  -3  -1   5  660.93   34.60
   3  -1  -5  577.64   34.10
  -3  -1   5  676.43   34.40
  -3  -1   5  693.23   35.30
  -3  -1   5  662.43   34.40
  -3  -1   5  579.94   36.10
   3   1   5  655.93   34.60
  -3  -1   5  617.94   35.70
   3   1   5  642.24   34.40
  -3  -1   5  689.23   34.10
  -3  -1   5  631.54   34.70
   3   1   5  606.94   34.10
  -3  -1   5  719.43   38.90
  -3  -1   5  585.14   35.80
   3   1   5  600.24   34.40
  -3  -1   5  640.14   36.30
   3   1   5  598.34   34.20
   3   1   5  609.54   34.30
  -3  -1   5  620.54   36.90
  -3  -1   5  673.03   34.10
  -3  -1   5  554.44   35.70
   3  -2   5  268.27   19.50
  -3   2   5  287.17   18.30
  -3   2   5  269.27   14.90
  -3   2   5  246.18   14.50
  -3   2   5  266.27   15.40
  -3   2   5  271.37   15.20
   3  -2   5  254.07   15.30
  -3   2   5  283.87   18.10
   3  -2   5  257.77   15.70
   3  -2   5  264.07   17.70
  -3   2   5  277.17   15.20
   3  -2   5  212.78   15.30
  -3   2   5  284.17   17.60
   3  -2   5  258.37   15.00
   3  -2   5  283.97   16.50
  -3   2   5  274.67   14.60
  -3   2   5  254.77   18.50
  -3   2   5  269.77   16.00
  -3   2   5  259.37   14.90
  -3   2   5  258.97   17.10
   3  -2   5  268.87   16.00
  -3   2   5  271.37   14.90
   3  -2   5  254.27   15.30
   3  -2   5  264.67   15.40
   3  -2   5  248.08   15.50
  -3   2   5  265.47   15.00
   3  -2   5  264.67   16.20
   3  -2   5  268.07   15.10
   3  -2   5  225.38   15.50
  -3   2   5  273.17   15.40
   3   2  -5  261.67   15.10
  -3   2   5  267.77   15.60
   3  -2   5  261.47   15.40
  -3   2   5  258.87   14.70
   3  -2   5  247.68   15.80
  -3   2   5  264.17   14.60
  -3   2   5  281.47   14.70
  -3   2   5  268.77   14.60
  -3   2   5  284.17   18.70
  -3   2   5  278.07   15.00
  -3   2   5  261.77   16.50
   3  -2   5  263.67   15.40
  -3  -2  -5  316.97   17.50
  -3   2   5  278.67   15.60
  -3   2   5  276.37   15.20
  -3  -2   5  269.47   17.30
   3   2   5  266.27   14.80
   3   2   5  248.68   15.00
  -3  -2   5  285.67   14.90
   3   2   5  248.58   15.30
   3   2   5  248.08   14.60
   3  -2  -5  252.27   15.00
   3   2   5  249.38   14.80
   3   2   5  250.87   15.10
   3   2   5  270.47   15.90
  -3  -2   5  251.37   17.10
  -3  -2   5  280.37   16.90
  -3  -2   5  268.37   14.80
   3   2   5  258.97   15.00
  -3  -2   5  280.47   15.30
   3   2   5  247.58   14.70
  -3  -2   5  257.07   16.80
   3   2   5  265.07   15.20
   3   2   5  263.47   14.90
  -3  -2   5  276.97   15.40
  -3  -2   5  253.27   17.70
   3   2   5  274.17   14.80
   3   2   5  282.27   14.90
  -3  -2   5  298.97   19.90
   3   2   5  263.97   15.10
  -3  -2   5  258.67   19.80
  -3  -2   5  272.77   15.30
  -3  -2   5  232.98   16.80
  -3  -2   5  251.67   16.60
  -3  -2   5  218.48   19.00
   3   2   5  265.57   15.40
  -3  -2   5  250.87   25.30
  -3  -2   5  248.78   16.90
   3   2   5  266.07   14.50
  -3  -2   5  250.27   15.40
  -3  -2   5  248.18   16.30
  -3  -2   5  270.87   19.00
  -3  -2   5  276.97   15.00
   3   2   5  249.38   14.60
  -3  -2   5  260.37   18.70
   3   2   5  265.17   15.30
   3   2   5  255.67   14.80
  -3  -2   5  281.57   15.50
   3   2   5  278.07   15.50
   3   2   5  263.97   14.90
   3   2   5  256.07   14.60
  -3  -2   5  278.97   18.50
  -3  -2   5  270.27   16.20
  -3  -2   5  257.47   19.80
  -3  -2   5  279.77   16.20
  -3   3   5   32.70    4.00
  -3  -3  -5   41.70    5.50
  -3   3   5   34.30    2.90
  -3   3   5   35.10    2.70
   3  -3   5   27.50    4.00
  -3   3   5   34.30    2.90
   3  -3   5   34.90    3.90
   3  -3   5   34.10    5.10
  -3   3   5   35.50    3.20
  -3   3   5   36.50    2.90
   3  -3   5   34.30    4.00
   3  -3   5   36.20    4.10
   3  -3   5   36.30    4.40
  -3   3   5   34.10    3.40
  -3   3   5   33.80    2.70
  -3   3   5   21.40    5.00
   3  -3   5   36.60    6.40
  -3   3   5   39.30    3.20
  -3   3   5   36.00    5.70
  -3   3   5   36.40    3.10
  -3   3   5   35.10    3.30
  -3   3   5   37.00    2.70
   3  -3   5   32.40    4.10
   3   3  -5   32.40    3.00
   3  -3   5   25.40    3.40
   3  -3   5   30.70    3.40
  -3   3   5   33.40    2.60
   3  -3   5   31.70    4.00
  -3   3   5   43.90    6.40
  -3   3   5   35.60    3.00
  -3   3   5   34.10    2.70
   3  -3   5   32.50    4.00
   3  -3   5   34.40    3.70
  -3   3   5   31.80    2.60
  -3   3   5   27.90    6.00
  -3   3   5   37.40    3.30
   3  -3   5   29.10    3.90
  -3   3   5   34.30    2.80
  -3   3   5   33.50    4.20
  -3   3   5   21.00    5.80
  -3   3   5   35.80    3.30
  -3   3   5   36.10    3.00
   3  -3   5   33.20    3.00
   3  -3   5   32.70    3.30
  -3   3   5   34.10    3.70
   3   3   5   37.80    2.80
   3   3   5   32.00    3.00
   3   3   5   34.70    3.00
  -3  -3   5   36.20    4.60
  -3  -3   5   26.60    4.70
   3   3   5   34.90    3.80
  -3  -3   5   42.50    5.70
  -3  -3   5   33.20    3.40
   3   3   5   33.30    2.60
  -3  -3   5   34.20    3.30
  -3  -3   5   41.10    7.20
   3   3   5   33.10    2.60
  -3  -3   5   36.00    6.90
  -3  -3   5   32.50    4.60
  -3  -3   5   37.00    3.60
  -3  -3   5   37.10    3.60
   3   3   5   33.30    2.80
   3   3   5   36.90    2.90
   3   3   5   33.70    3.00
  -3  -3   5   41.70    3.20
  -3  -3   5   33.10    4.90
  -3  -3   5   39.30    4.90
  -3  -3   5   37.30    4.40
   3   3   5   30.70    3.20
  -3  -3   5   35.70    7.10
  -3  -3   5   36.20   10.60
   3   3   5   33.00    2.80
   3   3   5   36.20    3.10
  -3  -3   5   41.10    5.50
  -3  -3   5   35.30    6.30
  -3  -3   5   32.90    4.80
  -3  -3   5   28.20    3.50
   3   3   5   34.50    2.70
  -3  -3   5   42.30    6.80
   3   3   5   32.60    3.10
   3   3   5   33.40    2.70
   3   3   5   36.20    3.40
  -3  -3   5   41.30    6.30
  -3  -3   5   34.50    5.20
   3  -3  -5   36.40    3.30
   3   3   5   34.90    2.50
  -3  -3   5   33.80    3.20
  -3  -3   5   34.60    7.40
  -3   4   5  284.47   16.80
  -3   4   5  299.47   16.30
   3  -4   5  254.97   17.80
  -3   4   5  284.27   16.80
   3   4  -5  270.27   16.60
   3  -4   5  301.77   18.00
  -3   4   5  274.17   18.20
   3  -4   5  305.87   18.40
   3  -4   5  291.47   17.40
   3  -4   5  282.47   17.10
  -3   4   5  292.07   16.60
  -3   4   5  284.87   16.20
   3  -4   5  326.17   18.60
  -3   4   5  299.77   16.70
  -3   4   5  314.87   16.80
  -3   4   5  291.47   16.50
  -3   4   5  297.97   16.30
  -3   4   5  311.77   16.30
   3  -4   5  292.67   20.10
  -3   4   5  286.37   17.00
  -3   4   5  292.37   16.60
  -3   4   5  300.67   16.70
  -3   4   5  296.37   16.40
   3  -4   5  292.07   16.70
  -3   4   5  301.37   17.00
   3  -4   5  301.67   18.10
  -3   4   5  306.87   16.60
   3  -4   5  308.07   21.90
  -3   4   5  297.37   16.20
  -3   4   5  299.57   16.30
   3  -4   5  270.57   17.40
  -3   4   5  253.97   21.20
   3  -4   5  296.17   17.70
   3  -4   5  265.87   17.80
  -3   4   5  314.47   21.50
  -3   4   5  292.27   16.20
   3  -4   5  260.57   16.70
   3  -4   5  276.87   19.20
  -3   4   5  297.87   17.40
  -3   4   5  294.17   16.90
  -3  -4   5  280.97   17.90
   3   4   5  302.77   16.10
   3   4   5  284.97   16.70
  -3  -4   5  303.47   19.00
  -3  -4   5  306.77   21.50
   3   4   5  308.27   16.40
  -3  -4   5  299.17   20.80
   3   4   5  301.77   16.50
   3  -4  -5  319.87   17.00
   3   4   5  282.87   16.40
   3   4   5  300.77   17.10
  -3   4  -5  313.47   18.80
  -3  -4   5  312.97   19.00
   3   4   5  292.97   16.50
  -3  -4   5  279.37   17.30
  -3  -4   5  293.37   16.80
  -3  -4   5  293.67   19.70
  -3  -4   5  278.87   17.30
   3   4   5  300.17   16.40
  -3  -4   5  304.57   18.80
  -3  -4   5  290.17   25.90
  -3  -4   5  296.87   21.00
   3   4   5  297.37   16.30
  -3  -4   5  299.87   18.90
  -3  -4   5  294.47   18.00
  -3  -4   5  290.87   18.20
  -3  -4   5  286.67   20.60
  -3  -4   5  293.57   17.30
   3   4   5  297.17   16.80
   3   4   5  299.07   16.30
  -3  -4   5  295.67   17.30
  -3  -4   5  295.37   20.00
  -3  -4   5  293.07   19.70
   3   4   5  313.27   17.70
   3   4   5  298.77   16.60
   3   4   5  286.37   16.70
  -3  -4   5  297.07   22.70
   3   4   5  299.67   16.20
  -3  -4   5  282.47   18.40
   3   4   5  284.07   16.80
  -3  -5  -5  788.52   46.30
   3   5  -5  842.32   42.20
   3  -5   5  808.72   43.60
   3  -5   5  763.82   43.90
  -3   5   5  791.12   43.20
  -3   5   5  782.52   42.70
   3  -5   5  772.02   43.90
  -3   5   5  771.72   42.20
   3  -5   5  794.22   43.10
  -3   5   5  697.13   42.60
   3  -5   5  727.83   45.30
  -3   5   5  782.82   42.10
   3  -5   5  797.32   46.30
  -3   5   5  827.22   47.90
   3  -5   5  822.12   44.30
  -3   5   5  792.32   42.20
   3  -5   5  670.53   43.60
  -3   5   5  771.32   42.50
   3  -5   5  805.82   43.40
  -3   5   5  805.22   42.60
  -3   5   5  810.72   42.50
   3  -5   5  798.02   44.00
  -3   5   5  796.42   42.50
   3  -5   5  812.52   42.70
  -3   5   5  785.72   42.80
  -3   5   5  778.72   42.90
  -3   5   5  812.52   42.30
  -3   5   5  788.72   42.50
   3  -5   5  839.82   48.20
  -3   5   5  780.42   42.70
   3  -5   5  808.12   44.40
   3  -5   5  794.52   43.40
   3  -5   5  700.53   43.10
  -3   5   5  754.92   42.10
  -3   5   5  702.63   44.10
  -3   5   5  777.62   42.90
  -3   5   5  781.32   42.40
  -3   5   5  814.22   42.20
   3   5   5  770.02   42.60
   3  -5  -5  783.62   43.60
   3   5   5  870.31   42.50
  -3   5  -5  785.02   44.60
   3   5   5  814.12   42.20
   3   5   5  767.32   42.30
   3   5   5  785.22   42.40
   3  -5  -5  750.42   42.90
   3   5   5  799.42   42.30
  -3  -5   5  889.01   44.30
  -3  -5   5  899.91   43.70
   3   5   5  805.52   42.10
   3   5   5  802.12   42.50
   3   5   5  771.82   42.50
   3   5   5  791.52   42.10
   3   5   5  834.02   43.40
   3  -5  -5  907.11   43.00
  -3  -5   5  749.62   45.50
   3   5   5  780.82   41.90
   3   5   5  788.62   42.20
   3   5   5  792.02   42.90
   3   5   5  770.02   42.50
  -3   6   5   89.89    6.10
  -3   6   5   87.49    5.90
  -3   6   5   83.99    5.90
   3  -6   5   99.89    6.90
   3  -6   5  103.09    6.70
  -3   6   5   94.09    5.50
  -3   6   5   91.99    5.80
  -3   6   5   87.49    8.90
  -3  -6  -5   81.89    8.40
   3  -6   5   94.79    8.70
   3   6  -5   87.59    5.70
  -3   6   5   89.29    6.30
   3   6  -5   87.79    5.60
  -3   6   5   87.99    6.00
  -3   6   5   79.99    8.40
  -3   6   5   88.29    5.80
  -3   6   5   84.99    5.70
   3  -6   5   97.09    6.80
   3  -6   5   95.19    7.30
  -3   6   5   88.99    5.40
  -3  -6  -5   74.19   10.60
  -3   6   5   97.69    5.80
  -3   6   5   85.99    5.70
   3  -6   5   92.89    7.00
  -3   6   5   71.09    6.70
   3  -6   5   97.19    6.90
  -3   6   5   82.19    5.40
   3   6  -5   88.29    5.60
  -3   6   5   85.59    5.50
   3  -6   5   84.79    6.30
  -3   6   5   95.59    5.60
  -3   6   5   86.99    5.60
   3  -6   5   90.99    6.30
  -3  -6  -5   92.99    8.80
   3  -6   5   93.59    5.90
  -3   6   5   85.09    5.40
   3  -6   5   89.69    6.40
   3  -6   5  103.29   10.30
   3  -6  -5   93.89    6.40
   3   6   5   93.39    6.10
  -3  -6   5  102.29    9.80
   3   6   5   91.19    5.50
  -3  -6   5   85.29    8.60
  -3  -6   5   82.89    6.50
   3   6   5   92.69    5.50
   3   6   5   88.09    6.00
   3   6   5   95.09    6.30
   3   6   5   84.79    5.70
   3  -6  -5   96.79    6.40
   3   6   5   81.19    6.40
   3   6   5   89.89    5.60
  -3  -6   5   93.99    7.70
   3   6   5   92.29    5.60
  -3  -6   5   99.19   13.20
   3   6   5   86.29    5.80
   3   6   5   99.99    5.70
  -3  -6   5   89.99    8.20
   3   6   5   93.49    5.40
  -3  -6   5   89.29    6.60
  -3  -6   5   98.69    6.90
  -3  -6   5   98.39    7.70
  -3  -6   5   82.19    6.30
  -3  -6   5   97.49    8.60
  -3  -6   5   73.69   10.30
  -3  -6   5   94.59    8.80
   3   6   5   94.79    5.50
  -3  -6   5   91.89    6.10
   3  -6  -5   98.29    6.20
   3  -6  -5   90.69    6.30
   3   6   5   86.99    5.80
  -3  -6   5   87.09    7.40
  -3  -6   5   88.99    8.20
   3  -7   5   27.30    3.90
   3   7  -5   19.60    1.90
   3  -7   5   24.90    2.50
  -3   7   5   20.40    1.90
  -3   7   5   20.60    1.70
  -3   7   5   18.30    3.40
  -3  -7  -5   20.80    3.60
  -3   7   5   23.00    2.30
  -3   7   5   22.80    1.80
   3   7  -5   18.80    1.90
  -3   7   5   21.80    2.10
   3  -7   5   24.50    2.20
  -3   7   5   20.00    1.90
   3  -7   5   27.30    2.40
   3  -7   5   27.90    2.40
   3  -7   5   24.00    2.40
  -3   7   5   20.90    2.20
  -3   7   5   20.10    1.90
  -3   7   5   21.40    2.30
  -3  -7  -5   14.00    4.10
  -3   7   5   24.20    1.90
   3  -7   5   26.00    2.80
  -3  -7  -5   19.00    2.80
  -3  -7  -5   25.10    3.40
  -3   7   5   23.80    1.80
   3  -7   5   26.60    3.00
   3  -7   5   32.60    5.30
   3   7   5   21.40    1.90
  -3  -7   5   19.30    3.10
  -3  -7   5   18.40    2.20
   3  -7  -5   24.60    2.40
  -3  -7   5   17.50    4.50
   3   7   5   23.60    2.30
  -3  -7   5   22.40    2.40
  -3  -7   5   24.80    2.80
  -3  -7   5   19.90    3.30
   3   7   5   21.60    1.70
   3   7   5   21.00    1.90
  -3   7  -5   19.70    2.50
  -3  -7   5   18.80    2.90
   3   7   5   21.50    2.00
   3   7   5   17.80    2.00
  -3  -7   5   23.30    5.20
   3   7   5   18.70    2.10
   3  -7  -5   23.40    2.40
  -3  -7   5   22.90    3.50
   3   7   5   26.10    1.80
   3   7   5   18.40    1.70
   3  -7  -5   23.30    2.50
   3   7   5   20.90    1.70
  -3   0   6 1921.51  110.19
  -3   0   6 2267.57  112.29
   3   0   6 1963.10  107.19
   3   0   6 2033.20  107.69
  -3   0   6 1935.51  108.69
  -3   0   6 2148.19  107.69
  -3   0   6 1963.70  110.09
  -3   0   6 2089.89  107.19
   3   0   6 1911.91  107.09
   3   0   6 2008.70  106.99
  -3   0   6 2113.29  106.79
   3   0   6 2043.80  106.99
  -3   0   6 2021.90  107.49
   3   0   6 2123.39  107.09
  -3   0   6 2031.60  106.89
  -3   0   6 2053.59  110.69
   3   0   6 1978.30  107.39
  -3   0   6 2037.80  106.69
   3   0   6 2081.19  107.89
  -3   0   6 2204.48  108.29
   3   0   6 2002.00  106.89
  -3   0   6 2080.19  107.09
   3   0   6 2001.10  107.39
  -3   0   6 1746.23  110.39
   3   0   6 2085.29  107.09
  -3   0   6 2059.39  109.49
  -3   0   6 1900.01  109.59
  -3   0   6 2144.09  106.99
  -3   0   6 2090.59  109.59
  -3   0   6 2157.08  107.39
   3   0   6 1801.12  106.99
  -3   0   6 2190.88  107.29
   3   0   6 2029.00  107.19
  -3   0   6 1804.12  108.59
  -3   0   6 1964.20  109.19
  -3   0   6 2021.70  109.99
   3   0   6 2000.80  107.29
  -3   1   6  282.27   15.70
  -3   1   6  280.57   15.60
  -3   1   6  287.27   15.90
  -3   1   6  303.37   18.60
   3  -1   6  275.57   16.00
   3  -1   6  279.07   16.00
   3  -1   6  289.57   17.30
   3  -1   6  270.97   16.10
   3  -1   6  280.77   15.90
  -3   1   6  285.87   18.00
  -3   1   6  285.77   15.90
   3  -1   6  268.07   16.40
   3  -1   6  271.57   15.80
  -3   1   6  285.57   15.90
   3  -1   6  275.17   15.80
  -3   1   6  282.07   15.90
  -3   1   6  286.17   15.90
  -3   1   6  286.47   16.70
   3  -1   6  311.27   17.10
  -3   1   6  287.07   19.20
   3  -1   6  284.07   16.70
  -3   1   6  290.97   15.50
  -3   1   6  281.47   15.50
  -3   1   6  292.27   19.90
   3  -1   6  286.57   15.90
  -3   1   6  268.27   20.80
  -3   1   6  262.27   18.80
  -3   1   6  281.47   15.60
  -3   1   6  298.17   16.40
  -3   1   6  282.97   16.40
  -3   1   6  280.17   16.10
  -3   1   6  280.07   17.80
   3  -1   6  243.28   16.40
  -3   1   6  270.37   18.80
   3  -1   6  280.97   16.10
   3  -1   6  273.17   16.10
   3  -1   6  294.97   18.70
  -3  -1   6  273.07   16.20
   3   1   6  273.07   15.80
  -3  -1   6  289.87   15.60
   3   1   6  265.07   15.70
  -3  -1   6  272.97   17.20
   3  -1  -6  259.27   15.90
   3   1   6  281.97   15.40
   3   1   6  261.57   16.00
  -3  -1   6  275.77   16.10
   3   1   6  275.57   16.00
   3   1   6  277.37   15.50
   3   1   6  285.17   15.70
   3   1   6  272.37   15.60
   3   1   6  267.57   15.80
   3   1   6  278.57   15.70
   3   1   6  288.97   16.10
  -3  -1   6  273.27   17.70
  -3  -1   6  291.07   16.20
  -3  -1   6  294.97   17.10
   3   1   6  274.47   16.20
  -3  -1   6  313.67   20.90
  -3  -1   6  271.17   17.80
  -3  -1   6  262.67   18.40
  -3  -1   6  261.37   18.20
  -3  -1   6  244.08   17.70
   3   1   6  273.37   15.50
  -3  -1   6  291.97   19.40
  -3  -1   6  270.67   18.10
   3   1   6  289.17   15.70
  -3  -1   6  272.17   18.10
  -3   1  -6  273.57   17.40
  -3  -1   6  265.87   18.60
  -3  -1   6  244.48   19.00
  -3  -1   6  290.47   16.10
  -3  -1   6  283.77   16.00
   3   1   6  279.27   15.70
   3   1   6  277.87   15.60
  -3  -1   6  290.67   15.80
  -3  -1   6  290.47   15.80
  -3   2   6  502.05   27.70
  -3   2   6  515.15   27.80
   3  -2   6  440.96   28.20
  -3   2   6  537.25   27.40
  -3  -2  -6  550.24   30.40
  -3   2   6  510.95   28.20
   3  -2   6  511.35   29.30
  -3   2   6  526.45   27.70
  -3   2   6  522.95   28.60
  -3   2   6  491.55   31.60
   3  -2   6  560.44   33.20
   3  -2   6  555.94   31.20
   3  -2   6  548.45   29.10
  -3   2   6  520.55   27.70
  -3   2   6  498.55   27.90
   3  -2   6  495.85   28.40
  -3   2   6  499.15   28.00
   3  -2   6  519.95   27.80
   3  -2   6  527.65   28.30
  -3   2   6  513.95   27.80
  -3   2   6  513.75   27.40
  -3   2   6  521.25   32.20
   3  -2   6  488.75   28.10
  -3   2   6  515.85   27.20
  -3   2   6  495.75   28.50
  -3   2   6  522.15   27.30
   3  -2   6  490.95   28.20
  -3   2   6  529.35   28.30
   3   2  -6  481.05   27.90
  -3   2   6  460.65   29.50
   3  -2   6  527.95   28.90
  -3   2   6  543.75   32.10
  -3   2   6  511.05   31.10
   3  -2   6  537.55   28.40
  -3   2   6  517.25   27.60
  -3   2   6  493.65   27.50
   3   2   6  516.85   27.90
  -3  -2   6  562.64   33.70
  -3  -2   6  437.66   29.90
  -3  -2   6  494.35   29.80
  -3  -2   6  478.95   29.40
  -3  -2   6  539.15   27.70
  -3  -2   6  497.25   28.10
  -3   2  -6  518.95   29.70
   3   2   6  501.65   28.00
  -3  -2   6  491.65   33.50
  -3  -2   6  472.35   30.20
  -3  -2   6  467.85   31.80
   3   2   6  515.45   27.20
  -3  -2   6  500.85   27.70
  -3  -2   6  464.75   29.60
   3   2   6  522.15   27.70
  -3  -2   6  536.25   28.10
  -3  -2   6  476.55   30.10
  -3  -2   6  454.55   32.00
  -3  -2   6  500.05   27.90
   3  -2  -6  485.05   27.70
   3   2   6  482.25   27.80
  -3  -2   6  489.35   30.00
  -3  -2   6  451.95   32.70
   3   2   6  499.35   27.40
   3   2   6  503.55   27.40
  -3  -2   6  525.75   29.20
   3   2   6  490.65   27.40
  -3  -2   6  438.76   28.10
  -3  -2   6  503.15   29.10
  -3  -2   6  529.25   28.30
   3   2   6  508.25   28.10
   3   2   6  502.95   27.50
   3   2   6  491.55   27.50
  -3  -2   6  551.34   32.10
   3   2   6  482.65   27.80
   3   2   6  483.75   27.60
   3   2   6  529.15   28.60
   3   2   6  498.95   27.30
  -3  -2   6  512.45   29.80
   3   2   6  479.05   27.60
   3   2   6  535.45   27.50
  -3   3   6  251.57   15.70
  -3   3   6  295.27   16.10
  -3   3   6  264.47   20.70
   3  -3   6  324.27   16.30
  -3   3   6  274.17   16.20
   3   3  -6  254.87   16.00
   3  -3   6  254.47   16.60
   3  -3   6  286.67   17.10
  -3   3   6  276.97   16.50
  -3   3   6  289.67   16.10
  -3   3   6  283.17   15.60
   3  -3   6  315.87   17.30
  -3   3   6  282.57   15.70
  -3   3   6  293.67   16.10
  -3   3   6  268.57   16.00
  -3   3   6  280.37   16.30
  -3   3   6  273.67   16.00
  -3   3   6  262.77   17.90
  -3   3   6  291.37   15.70
  -3   3   6  283.77   16.00
  -3   3   6  293.07   16.00
  -3   3   6  251.07   16.10
   3  -3   6  253.77   16.50
  -3   3   6  286.47   16.80
   3  -3   6  272.07   16.80
  -3   3   6  297.47   16.50
   3  -3   6  335.17   17.10
  -3   3   6  294.57   20.80
  -3   3   6  281.87   15.60
  -3   3   6  278.07   15.60
  -3  -3   6  273.27   16.00
  -3  -3   6  238.18   26.50
  -3  -3   6  278.77   16.50
  -3  -3   6  283.27   17.60
   3   3   6  291.47   16.00
   3   3   6  280.47   15.80
  -3  -3   6  285.57   17.50
  -3  -3   6  272.27   20.20
  -3  -3   6  284.67   18.50
  -3  -3   6  295.77   20.20
   3   3   6  278.37   15.60
  -3  -3   6  277.27   21.40
   3   3   6  280.87   16.10
   3   3   6  282.97   15.50
   3   3   6  270.97   16.10
   3   3   6  275.17   15.70
   3   3   6  281.57   15.90
  -3  -3   6  285.17   18.20
  -3  -3   6  301.37   22.00
  -3  -3   6  290.97   18.30
  -3  -3   6  282.07   18.30
  -3  -3   6  281.27   19.00
  -3  -3   6  265.87   17.50
   3   3   6  277.17   16.90
   3   3   6  294.07   16.40
  -3  -3   6  286.87   21.10
  -3  -3   6  293.77   20.30
  -3  -3   6  278.17   16.50
   3   3   6  288.37   15.80
   3   3   6  269.87   17.30
   3   3   6  281.77   15.60
   3  -3  -6  276.57   16.20
  -3  -3   6  280.67   17.70
  -3  -3   6  291.27   16.10
   3   3   6  291.47   16.20
  -3  -3   6  294.67   16.70
   3   3   6  294.87   15.90
   3  -4   6  113.59    8.90
  -3   4   6  107.69    6.90
  -3   4   6  106.99    6.80
  -3   4   6  109.49    7.70
  -3   4   6  112.49    7.00
  -3   4   6  109.09    7.00
  -3   4   6  114.89    6.60
  -3   4   6  114.89   11.40
  -3   4   6  106.19    6.50
  -3   4   6  112.39    6.60
  -3   4   6   99.99    8.50
   3  -4   6  120.69    8.50
  -3   4   6  108.19    6.60
   3  -4   6  110.49    7.00
   3  -4   6   87.29    7.50
   3  -4   6  118.49   11.70
  -3   4   6   94.59    7.00
  -3   4   6  108.69    7.00
   3  -4   6   95.79    7.50
  -3   4   6  113.09    6.60
  -3   4   6  111.19    6.90
   3  -4   6   96.09    7.80
   3  -4   6  120.29   10.40
  -3   4   6  105.99    6.60
   3  -4   6  109.59    7.90
  -3   4   6  111.99    7.30
   3  -4   6  106.59    7.40
  -3   4   6  108.49    7.40
  -3   4   6  106.29    7.10
   3  -4   6  120.19    8.70
   3  -4   6  110.09    7.60
  -3   4   6  110.99    7.30
  -3   4   6  106.69    7.10
   3   4   6  118.19    7.20
   3   4   6  107.49    6.50
   3   4   6  103.79    6.90
   3   4   6  105.29    8.00
  -3  -4   6  105.79    9.70
  -3  -4   6  110.39    8.40
   3   4   6  103.79    6.70
  -3  -4   6  100.99   11.00
   3   4   6  109.69    6.80
  -3  -4   6  112.79    9.00
   3   4   6  104.99    6.50
  -3  -4   6  117.89   11.20
  -3  -4   6  112.49    9.00
   3   4   6  108.69    6.80
  -3  -4   6  103.29   10.50
  -3  -4   6  107.09    7.60
   3   4   6  111.89    7.00
  -3  -4   6   93.69   11.10
  -3  -4   6  108.59    8.40
  -3  -4   6  105.79   10.80
  -3  -4   6  100.99    8.40
   3   4   6  101.79    7.10
  -3  -4   6  114.59   10.00
  -3  -4   6  110.59    7.20
   3   4   6  109.59    7.50
  -3  -4   6  113.59    7.70
   3   4   6  116.69    6.90
  -3  -4   6   99.69    7.40
   3   4   6  106.19    6.60
  -3   4  -6  113.49    9.10
   3  -4  -6  118.69    7.30
  -3  -4   6  115.69    9.30
   3   4   6  108.19    6.60
  -3  -4   6  110.09    8.40
  -3  -4   6  112.29   10.20
  -3  -4   6  100.49    7.50
  -3  -4   6  113.09   15.60
  -3   5   6   11.70    1.80
   3  -5   6   13.30    4.30
  -3   5   6   13.30    2.10
  -3   5   6   10.50    1.70
  -3   5   6   11.20    2.00
   3  -5   6   13.30    3.40
  -3   5   6   12.90    1.80
  -3   5   6    6.50    3.40
  -3   5   6   16.00    1.90
  -3   5   6    7.00    1.70
  -3  -5  -6   12.30    3.90
   3  -5   6   10.10    2.60
  -3  -5  -6   11.20    3.90
  -3   5   6   12.90    1.50
   3  -5   6   11.20    2.80
  -3   5   6    9.30    1.50
   3  -5   6   12.10    2.60
  -3   5   6   14.00    1.60
  -3   5   6   14.40    1.80
  -3   5   6    9.50    3.50
  -3   5   6   12.60    2.10
   3  -5   6   10.70    2.30
  -3   5   6    8.20    2.20
   3   5  -6   10.50    1.60
  -3   5   6   12.50    1.90
  -3   5   6   10.20    1.40
  -3   5   6    7.80    1.30
   3  -5   6   10.60    2.00
   3  -5   6   12.30    3.10
   3  -5   6   11.10    2.40
   3  -5   6   10.20    2.30
   3  -5   6   10.50    2.00
  -3   5   6   12.20    1.50
   3   5  -6   12.10    1.50
   3  -5   6   12.80    1.90
  -3   5   6   12.40    2.10
   3  -5   6    5.30    2.40
  -3   5   6   14.40    1.60
  -3   5   6   12.90    1.60
  -3   5   6   14.20    2.00
   3  -5   6   14.00    2.40
  -3  -5   6   11.00    2.60
  -3  -5   6   11.80    2.70
  -3  -5   6   12.30    3.90
   3   5   6   12.90    1.60
  -3  -5   6   10.50    5.50
  -3  -5   6   11.90    3.90
  -3  -5   6   11.90    3.30
  -3  -5   6   12.90    3.50
  -3  -5   6    9.90    3.10
   3   5   6   14.50    2.00
   3   5   6   14.80    1.60
  -3  -5   6   13.60    2.30
   3   5   6   12.40    1.50
  -3  -5   6   13.80    4.00
   3  -5  -6   14.40    2.20
   3   5   6   11.90    1.50
  -3  -5   6   13.20    2.90
   3   5   6   12.60    1.60
  -3  -5   6   13.10    2.70
   3   5   6   11.00    1.40
  -3  -5   6   18.60    3.40
   3   5   6   11.90    1.50
  -3  -5   6   15.70    2.50
  -3  -5   6   13.60    3.80
  -3  -5   6   10.10    4.20
   3   5   6   13.50    1.90
   3   5   6   13.90    1.80
   3  -5  -6   12.40    2.00
   3  -5  -6   13.50    2.20
  -3  -5   6    8.50    3.10
   3   5   6   13.90    2.40
  -3  -5   6   10.80    3.60
  -3  -5   6   11.20    2.10
   3   5   6   13.50    1.50
  -3   5  -6   14.00    3.40
   3  -6   6   30.40    2.90
  -3   6   6   26.10    2.10
  -3   6   6   26.60    2.40
   3   6  -6   27.00    2.30
  -3  -6  -6   24.80    5.30
   3  -6   6   31.60    2.40
  -3   6   6   29.60    2.50
   3  -6   6   30.20    3.10
  -3   6   6   29.10    2.60
  -3  -6  -6   29.50    4.70
  -3   6   6   27.00    4.50
  -3   6   6   26.90    2.40
  -3   6   6   27.80    2.80
  -3   6   6   32.50    2.30
   3  -6   6   32.30    3.20
  -3   6   6   27.20    2.20
   3  -6   6   34.90    4.70
  -3   6   6   31.00    2.20
   3  -6   6   32.00    3.30
   3  -6   6   30.50    2.80
  -3   6   6   27.70    2.50
   3  -6   6   31.30    3.60
  -3   6   6   23.80    2.50
  -3   6   6   33.40    2.30
   3  -6   6   29.40    2.80
  -3   6   6   28.10    2.50
  -3   6   6   27.10    2.30
  -3   6   6   26.90    2.20
  -3   6   6   29.10    2.70
   3  -6   6   32.30    5.70
   3   6  -6   27.90    2.20
  -3   6   6   28.50    2.80
   3   6   6   23.50    2.20
   3   6   6   31.10    2.20
  -3  -6   6   32.80    3.00
   3  -6  -6   30.50    2.70
   3   6   6   29.80    2.10
  -3  -6   6   30.00    4.40
   3   6   6   30.80    2.20
  -3  -6   6   21.20    3.10
  -3  -6   6   25.30    4.40
   3  -6  -6   31.00    2.80
   3   6   6   31.00    2.40
   3   6   6   28.20    2.40
   3   6   6   30.70    2.30
  -3  -6   6   27.10    3.60
  -3  -6   6   23.50    2.80
  -3  -6   6   35.40    3.70
  -3  -6   6   33.40    6.40
  -3  -6   6   28.80    4.30
  -3  -6   6   34.70    4.80
  -3  -6   6   29.00    4.00
   3   6   6   30.90    2.20
   3   6   6   30.60    2.60
  -3  -6   6   27.80    3.30
  -3  -6   6   26.70    2.80
   3   6   6   29.30    2.70
   3   6   6   29.30    2.10
  -3  -6   6   27.70    3.30
  -3   0   7   -0.20    2.50
  -3   0   7    0.70    1.50
  -3   0   7    0.70    1.10
  -3   0   7    1.60    0.90
  -3   0   7    1.60    2.30
  -3   0   7    2.80    1.20
   3   0   7    0.40    0.90
   3   0   7    1.00    0.90
   3   0   7    0.80    1.10
   3   0   7    0.40    0.90
   3   0   7    0.50    0.90
   3   0   7   -0.30    0.80
  -3   0   7    6.00    2.10
  -3   0   7    6.20    2.50
  -3   0   7    2.10    3.00
  -3   0   7   -0.40    1.00
   3   0   7    2.50    0.90
  -3   0   7   -0.20    1.10
  -3   0   7   -0.20    0.90
  -3   0   7    2.50    2.50
  -3   0   7   -0.10    0.90
  -3   0   7   -0.20    2.10
  -3   0   7   -1.20    2.30
   3   0   7    0.40    1.10
  -3   0   7   -0.50    0.60
  -3   0   7   -0.20    2.10
   3   1  -7  127.89    9.00
   3  -1   7  173.28    9.40
  -3   1   7  141.79   12.70
  -3   1   7  151.18    9.40
  -3   1   7  137.49    9.00
  -3   1   7  153.88    9.90
  -3   1   7  155.08    9.90
  -3   1   7  148.89   12.60
  -3   1   7  144.79    8.70
  -3   1   7  152.38    9.00
   3  -1   7  169.68    9.40
  -3   1   7  146.69    8.80
  -3   1   7  143.69    8.50
   3  -1   7  159.68    9.60
  -3   1   7  131.09   10.70
  -3   1   7  141.59    9.00
   3  -1   7  150.78    8.90
   3  -1   7  159.88    9.30
  -3   1   7  142.79    8.90
   3  -1   7  164.68    9.40
  -3   1   7  165.98   13.30
  -3   1   7  149.99   12.00
   3  -1   7  128.79    8.90
  -3   1   7  145.29    8.60
  -3  -1   7  153.18   13.30
   3   1   7  150.38    8.90
  -3  -1   7  148.29    9.10
   3   1   7  149.39    8.70
  -3  -1   7  144.29   10.10
  -3  -1   7  138.09    9.40
  -3  -1   7  144.29    9.10
   3   1   7  148.19    9.30
   3   1   7  142.49    8.80
  -3  -1   7  135.69   11.60
  -3  -1   7  149.79   11.70
   3   1   7  150.98    9.30
   3   1   7  146.09    8.80
  -3  -1   7  142.39   10.70
  -3  -1   7  148.99    8.90
  -3  -1   7  147.09    8.90
   3   1   7  149.88    8.80
   3   1   7  149.99    9.00
  -3  -1   7  156.48   12.50
  -3  -1   7  120.49   10.70
  -3  -1   7  144.39   12.30
  -3  -1   7  129.99    9.10
  -3  -1   7  138.89   11.00
  -3  -1   7  150.68   11.40
   3   1   7  149.99    9.10
  -3  -1   7  145.89    9.20
  -3  -1   7  147.79   12.60
   3   1   7  147.89    8.80
  -3   2   7  160.08    9.50
   3  -2   7  163.88    9.90
   3  -2   7  161.28    9.40
  -3   2   7  157.88    9.90
   3  -2   7  151.48   10.80
  -3   2   7  155.58    9.40
  -3   2   7  137.59   11.10
  -3   2   7  158.28    9.50
   3  -2   7  161.88   10.00
   3  -2   7  175.78   10.80
  -3   2   7  158.88    9.30
  -3   2   7  153.48    9.40
   3  -2   7  153.98   10.00
  -3   2   7  137.89   13.00
  -3   2   7  148.19    9.00
  -3   2   7  155.88    9.40
  -3   2   7  159.28   13.80
  -3   2   7  152.38   10.20
   3  -2   7  166.78   10.20
  -3   2   7  136.29   10.40
  -3   2   7  160.28    9.50
  -3   2   7  158.78    9.20
  -3   2   7  159.38    9.10
  -3  -2   7  164.48   10.80
   3   2   7  159.38    9.20
  -3  -2   7  142.29   11.90
  -3  -2   7  156.08   12.00
  -3  -2   7  158.38    9.40
   3   2   7  153.48    9.40
  -3  -2   7  157.38    9.80
  -3  -2   7  166.28   12.40
  -3  -2   7  162.98    9.50
   3   2   7  165.88    9.70
  -3  -2   7  148.49    9.80
   3   2   7  149.39    9.20
  -3  -2   7  147.79   12.80
   3   2   7  160.78    9.20
   3   2   7  156.98    9.10
  -3  -2   7  165.98   14.20
  -3  -2   7  156.08    9.80
   3   2   7  161.98    9.20
  -3   2  -7  138.89   11.00
  -3  -2   7  144.79   10.70
  -3  -2   7  120.29   14.00
  -3  -2   7  154.98   11.60
  -3  -2   7  154.28   11.30
   3   2   7  159.98    9.00
   3   2   7  167.48    9.50
   3   2   7  160.18    9.80
   3   2   7  154.08    9.20
  -3  -2   7  161.88   12.30
  -3  -2   7  145.09   11.20
  -3   3   7   17.90    2.10
   3  -3   7   24.20    3.40
  -3   3   7   16.50    2.40
  -3   3   7   14.20    2.30
   3  -3   7   15.40    2.30
   3  -3   7   16.10    2.70
  -3   3   7   17.20    3.70
   3  -3   7   17.40    2.40
  -3   3   7   16.20    2.30
   3  -3   7   26.40    3.90
   3  -3   7   16.70    2.50
   3  -3   7   11.70    2.50
  -3   3   7   16.90    2.00
  -3   3   7   19.10    3.00
  -3   3   7   17.80    1.80
   3  -3   7   22.00    4.60
   3  -3   7    9.90    2.90
  -3   3   7   17.40    1.90
  -3   3   7   20.10    2.50
   3  -3   7   17.20    2.10
   3  -3   7   24.00    5.90
  -3   3   7   15.30    1.70
  -3   3   7    5.40    3.90
  -3   3   7   12.40    2.00
  -3   3   7   17.50    2.00
  -3   3   7   14.30    4.40
  -3   3   7   16.50    2.50
  -3   3   7   16.40    1.80
  -3  -3   7   12.20    3.20
   3   3   7   17.00    1.70
   3   3   7   18.60    1.70
  -3  -3   7   19.50    3.50
  -3  -3   7   15.80    3.00
  -3  -3   7   15.50    2.50
   3   3   7   19.90    2.40
  -3  -3   7   21.30    4.00
  -3  -3   7   17.80    3.50
  -3  -3   7   23.10    2.80
  -3  -3   7   19.80    4.40
  -3  -3   7   13.30    4.50
  -3  -3   7    1.30    6.40
  -3  -3   7   17.30    3.90
   3   3   7   16.80    1.90
  -3  -3   7   15.30    4.20
  -3  -3   7   19.40    5.50
  -3  -3   7   14.70    5.00
  -3  -3   7   15.70    2.50
  -3   3  -7   12.70    3.50
   3   3   7   17.70    2.50
   3   3   7   16.90    1.80
   3   3   7   20.30    1.90
   3   3   7   14.10    2.80
  -3  -3   7    1.40    4.40
  -3  -3   7   11.10    2.00
  -3  -3   7   12.50    4.80
  -3  -3   7   20.80    4.40
   3   3   7   12.50    2.00
   3   3   7   18.40    1.90
   3  -3  -7   11.80    1.90
   3   3   7   17.60    1.80
  -3  -3   7   11.40    2.40
   3  -4   7   19.20    4.80
  -3   4   7   15.60    2.10
  -3   4   7   13.00    2.00
  -3   4   7   16.10    1.90
  -3   4   7   12.00    2.10
  -3   4   7   16.10    1.60
   3  -4   7   17.30    4.00
  -3   4   7   14.60    1.70
   3  -4   7   15.80    2.40
   3  -4   7   11.00    3.00
  -3   4   7   14.10    1.60
  -3   4   7   10.40    3.90
  -3   4   7   13.30    1.80
  -3   4   7   15.20    1.70
   3  -4   7   13.50    2.50
  -3   4   7   13.70    1.60
  -3   4   7   15.70    2.70
   3  -4   7   15.40    2.80
  -3   4   7   11.20    1.80
   3  -4   7   17.70    2.20
  -3   4   7   16.90    2.40
  -3   4   7   14.70    1.60
   3  -4   7   15.20    2.40
   3  -4   7   13.50    2.30
   3   4   7    8.40    2.40
  -3  -4   7   15.30    2.50
  -3  -4   7   14.00    4.10
  -3  -4   7   12.80    3.30
   3   4   7   16.10    1.60
   3   4   7   15.30    1.90
  -3  -4   7   18.50    3.70
  -3  -4   7   16.80    2.40
  -3  -4   7   18.30    4.70
  -3  -4   7    8.00    6.10
  -3  -4   7   16.20    2.80
  -3  -4   7    2.80    3.70
  -3  -4   7   16.70    3.30
  -3  -4   7   14.50    4.50
  -3  -4   7   15.60    2.90
   3   4   7   14.80    2.10
  -3  -4   7   12.70    4.50
  -3  -4   7   13.20    2.90
  -3  -4   7   13.70    2.90
   3   4   7   14.00    1.50
   3   4   7   15.60    1.60
   3   4   7   12.80    1.80
   3   4   7   12.00    1.50
  -3  -4   7    7.80    3.50
  -3  -4   7   12.60    2.20
  -3   5   7   93.99    5.70
  -3   5   7  101.69    5.70
  -3   5   7   94.89    6.40
  -3   5   7   96.79    6.00
   3  -5   7  117.39    9.00
   3   5  -7   90.19    5.80
   3  -5   7  105.59    6.50
  -3   5   7   98.89    6.60
   3  -5   7  115.49    7.30
  -3   5   7   98.69    6.30
  -3   5   7   95.79    5.90
  -3   5   7   92.89    6.00
  -3   5   7   93.69    6.20
   3  -5   7   99.39    7.40
  -3   5   7  103.39    5.80
  -3   5   7   78.79    8.70
  -3   5   7   95.59    5.70
  -3   5   7  101.49    5.70
   3  -5   7   95.49    6.00
  -3   5   7   93.59    6.10
   3  -5   7  102.89    6.50
   3  -5   7   86.29    6.20
  -3   5   7   97.19    6.00
   3   5  -7   91.39    5.70
  -3   5   7   88.89    5.70
   3  -5   7  111.79    6.50
   3  -5   7  101.69    6.50
  -3  -5   7   98.69    6.50
  -3  -5   7  105.19    8.30
  -3  -5   7   98.99    7.30
   3   5   7   93.39    5.80
   3   5   7  102.09    5.70
  -3  -5   7   82.29   10.40
  -3  -5   7   98.99    6.10
  -3  -5   7  101.29    7.00
  -3  -5   7   84.99    6.40
   3   5   7   92.59    6.60
  -3  -5   7  100.49    6.80
   3   5   7  100.29    5.80
  -3  -5   7  101.29    8.30
   3   5   7  103.99    6.10
  -3  -5   7  117.29    8.60
   3   5   7   98.79    5.70
   3   5   7  104.29    5.90
  -3  -5   7   93.59    8.30
  -3  -5   7  119.69    7.10
  -3  -5   7   93.69    7.40
   3   5   7   98.09    5.80
   3   5   7   92.69    5.90
  -3   0   8   49.10    4.50
  -3   0   8   39.40    6.70
  -3   0   8   49.30    3.70
  -3   0   8   46.10    3.70
  -3   0   8   43.50    6.40
  -3   0   8   45.60    3.80
  -3   0   8   48.20    3.50
  -3   0   8   47.60    4.40
  -3   0   8   46.90    6.10
   3   0   8   50.49    3.70
  -3   0   8   47.50    6.60
  -3   0   8   52.79    3.90
  -3   1   8   12.90    2.00
  -3   1   8   18.70    1.90
  -3   1   8   21.50    2.30
   3  -1   8   23.90    2.40
  -3   1   8   19.90    2.30
  -3   1   8   15.80    4.30
  -3   1   8   18.30    2.30
  -3   1   8   19.00    2.80
  -3   1   8   13.70    4.10
   3  -1   8   23.60    2.10
  -3   1   8   11.30    2.70
   3  -1   8   25.60    2.60
  -3   1   8   21.50    2.40
  -3   1   8   18.50    2.00
  -3  -1   8   18.50    2.80
  -3  -1   8   11.50    3.00
  -3  -1   8   21.50    4.90
  -3  -1   8   18.80    2.40
  -3  -1   8   20.10    2.10
  -3  -1   8   15.60    4.80
  -3  -1   8   13.60    3.50
  -3  -1   8   18.80    2.30
  -3  -1   8   18.10    2.20
  -3  -1   8   21.60    4.80
  -3  -1   8   20.50    2.90
  -3  -1   8   20.30    4.30
  -3   2   8  287.77   15.50
  -3   2   8  255.77   15.60
  -3   2   8  285.47   15.00
   3  -2   8  308.27   15.40
   3  -2   8  308.77   16.00
   3  -2   8  304.57   15.80
  -3   2   8  275.27   15.50
  -3   2   8  275.27   16.20
  -3   2   8  238.68   15.40
  -3   2   8  233.58   19.30
  -3   2   8  275.77   14.90
  -3   2   8  295.67   15.40
  -3   2   8  272.97   15.30
  -3   2   8  279.97   15.10
   3   2   8  277.37   15.20
  -3  -2   8  264.17   17.00
  -3  -2   8  272.57   15.70
  -3  -2   8  264.07   15.50
  -3  -2   8  238.68   18.00
  -3  -2   8  279.57   17.20
  -3  -2   8  246.38   19.00
  -3  -2   8  258.37   15.20
  -3  -2   8  251.47   15.40
  -3  -2   8  255.37   16.20
   3   2   8  260.77   15.10
   3   2   8  285.17   15.20
  -3  -2   8  280.87   16.80
  -3   3   8   -1.70    2.00
  -3   3   8    0.20    0.60
  -3   3   8    0.70    0.80
  -3   3   8    0.70    0.90
  -3   3   8   -0.20    0.50
  -3   3   8   -0.40    0.90
  -3   3   8    0.30    0.70
  -3   3   8   -2.40    1.30
   3  -3   8    0.20    0.80
  -3   3   8   -0.10    0.70
   3  -3   8   -0.70    0.90
   3  -3   8    0.50    1.00
  -3   3   8   -1.10    0.80
  -3   3   8   -0.20    0.70
  -3   3   8    0.60    1.00
   3   3   8    2.80    0.80
  -3  -3   8   -1.10    1.50
   3   3   8   -0.30    0.90
  -3  -3   8   -3.30    2.20
   3   3   8    0.30    0.70
  -3  -3   8    0.30    1.70
  -3  -3   8   -0.10    1.40
  -3  -3   8   -2.00    3.30
   3   3   8    0.00    0.50
  -3  -3   8    0.50    1.80
  -3  -3   8    1.30    1.20
  -3  -3   8    0.40    1.80
  -3  -3   8    0.20    1.90
   3   3   8    0.00    0.60
  -3  -3   8   -1.10    1.10
  -3  -3   8    0.70    1.00
  -3   4   8   29.90    2.50
  -3   4   8   28.70    2.20
  -3   4   8   27.20    3.00
   3  -4   8   30.60    2.40
  -3   4   8   26.90    2.40
  -3   4   8   28.00    2.30
  -3   4   8   29.80    2.40
  -3   4   8   28.60    2.10
  -3   4   8   29.60    2.10
   3  -4   8   29.80    3.00
   3   4   8   32.30    2.30
   3   4   8   28.70    2.20
  -3  -4   8   35.70    5.10
   3   4   8   28.80    2.10
  -4   0   0 3500.35  193.38
  -4   0   0 3865.41  193.98
   4   0   0 3908.61  195.18
   4   0   0 3485.35  192.48
   4   0   0 3452.45  192.28
  -4   0   0 3930.81  192.88
   4   0   0 3598.24  192.28
   4   0   0 3196.38  192.48
  -4   0   0 3930.81  193.98
   4   0   0 3876.31  193.88
  -4  -1   0    0.40    1.00
   4   1   0    1.30    0.50
  -4  -1   0    0.30    0.90
   4   1   0    0.40    0.70
   4  -1   0    0.10    0.50
   4  -1   0    2.00    0.70
  -4   1   0    0.60    1.10
   4  -1   0    0.20    0.30
   4   1   0    0.10    0.30
  -4   1   0    0.20    0.90
  -4   1   0    3.10    1.50
   4   1   0    0.00    0.40
   4   1   0    1.00    0.40
  -4   2   0 1150.08   62.99
   4  -2   0 1112.39   61.29
   4   2   0 1145.09   60.69
   4  -2   0 1071.89   60.79
   4   2   0 1139.39   61.09
   4   2   0 1139.19   60.69
  -4  -2   0 1230.38   62.69
   4  -2   0 1066.49   61.19
   4   2   0 1228.68   61.89
  -4   2   0 1177.18   62.49
  -4  -2   0 1223.58   62.89
   4   3   0    6.00    1.20
  -4   3   0    0.30    1.30
  -4  -3   0    1.00    1.80
  -4   3   0    0.20    1.30
   4   3   0    3.40    0.70
  -4  -3   0   -0.60    1.70
  -4  -4   0   34.90    8.40
  -4   4   0   32.70    3.60
   4  -4   0   31.90    3.20
  -4  -4   0   35.00    4.90
  -4  -4   0   35.20    5.90
   4  -4   0   27.70    2.70
  -4   4   0   33.60    4.80
   4   4   0   34.10    2.60
  -4  -4   0   34.90    4.80
  -4   4   0   41.80    4.60
   4  -4   0   29.40    2.60
  -4  -4   0   35.80    6.00
   4   4   0   31.40    2.60
  -4  -4   0   32.70    9.30
   4  -4   0   29.70    2.80
  -4  -4   0   37.20    5.80
   4  -4   0   32.40    3.40
   4   5   0    1.20    0.90
  -4  -5   0    3.20    2.40
   4  -5   0    0.30    1.00
   4  -5   0   -0.10    0.90
   4   5   0    0.80    0.70
  -4  -5   0    1.30    2.40
  -4   5   0    0.30    1.70
  -4  -5   0    6.80    2.70
   4  -5   0    0.40    1.00
  -4  -5   0    3.60    4.60
   4   5   0    0.30    1.10
   4  -5   0    0.20    0.90
   4  -5   0   -0.20    0.80
   4  -5   0    0.60    1.00
   4   5   0    2.50    0.90
  -4   5   0   -0.50    1.40
  -4   5   0   -2.70    1.70
   4  -5   0    0.50    1.20
   4   5   0    0.00    0.70
   4   5   0    0.40    0.80
  -4  -5   0    6.20    3.60
   4  -6   0   99.09    7.50
   4   6   0   97.29    6.70
   4  -6   0   90.99    6.00
   4   6   0   99.29    6.30
   4   6   0   93.89    5.90
   4  -6   0   92.39    6.60
   4  -6   0   96.39    6.50
  -4  -6   0   75.59   10.70
   4  -6   0   94.59    6.30
  -4  -6   0   78.19   13.40
  -4  -6   0  103.09    9.60
   4  -6   0   95.89    6.60
  -4  -6   0   81.49    8.40
   4   6   0   95.09    6.00
  -4  -6   0   94.49    9.20
  -4   6   0   99.99    7.10
   4   6   0   94.39    6.10
  -4   7   0    0.20    1.60
   4   7   0    0.00    0.70
  -4  -7   0   -0.20    4.30
   4   7   0    0.40    0.70
   4  -7   0    0.30    1.20
  -4  -7   0    0.90    3.10
   4  -7   0   -0.60    1.10
  -4  -7   0    0.20    2.40
   4   7   0    0.20    0.90
   4  -7   0    0.00    1.20
   4  -7   0    0.10    1.10
  -4  -7   0   -0.50    2.10
   4  -7   0    0.60    1.00
   4   7   0    0.30    0.90
   4   7   0    0.20    0.80
   4  -7   0    0.00    0.90
  -4  -8   0  156.18   10.60
   4  -8   0  200.88   10.90
  -4  -8   0  165.98   12.00
   4  -8   0  203.08   10.70
  -4  -8   0  182.98   16.30
   4   8   0  173.48   10.40
   4   8   0  170.88   10.30
   4  -8   0  197.28   10.50
  -4  -8   0  172.98   13.80
   4   8   0  180.38   10.30
   4   8   0  189.68   10.40
   4  -8   0  188.38   10.80
   4  -8   0  192.38   10.30
   4   0   1   -0.10    0.50
   4   0   1    0.10    0.30
  -4   0   1    1.00    1.20
   4   0  -1    0.40    0.30
  -4   0   1   -0.10    0.60
   4   0   1    0.20    0.30
  -4   0   1    1.30    1.20
  -4   0   1    0.20    0.70
  -4   0  -1    0.90    1.00
  -4   0   1    1.30    0.80
  -4   0   1    0.00    0.90
   4   0  -1    0.50    0.40
   4   0   1    0.30    0.60
  -4   0   1   -0.80    1.40
   4   0  -1    0.10    0.30
  -4   0  -1    0.30    0.70
   4   0   1   -0.10    0.60
   4   0  -1    0.70    0.50
   4   0   1    0.00    0.70
   4  -1   1 1178.98   62.39
   4   1  -1 1115.29   62.19
  -4   1   1 1246.88   64.59
   4   1  -1 1176.08   62.59
   4  -1   1 1101.39   62.29
  -4  -1  -1 1221.08   63.79
  -4   1   1 1279.67   64.09
   4  -1   1 1160.68   62.89
   4  -1   1 1164.28   62.99
   4  -1   1 1110.89   62.89
   4  -1   1 1326.07   63.99
  -4   1   1 1183.88   62.89
  -4   1   1 1187.58   63.09
  -4   1   1 1199.48   63.09
  -4  -1  -1 1241.88   63.89
  -4   1   1 1170.28   64.49
   4  -1  -1 1122.09   62.29
  -4  -1   1 1097.09   63.49
  -4  -1   1 1238.98   64.79
   4   1   1 1215.68   63.39
   4   1   1 1232.28   62.59
   4   1   1 1195.58   62.79
  -4   1  -1 1151.08   63.89
  -4  -1   1 1157.78   64.29
   4   1   1 1149.29   62.29
  -4  -1   1 1286.97   63.49
  -4   1  -1 1227.28   63.89
  -4  -1   1  988.60   62.99
  -4  -1   1 1282.37   63.29
  -4  -1   1 1094.79   64.49
   4  -1  -1 1151.78   62.69
   4   1   1 1221.08   62.29
   4   2  -1  884.81   47.50
  -4   2   1  954.60   49.80
   4   2  -1  854.31   47.10
   4  -2   1  956.60   49.20
  -4   2   1  849.52   48.70
   4  -2   1  879.51   48.00
  -4   2   1  883.31   49.90
   4  -2   1  880.51   48.00
   4  -2   1  868.61   47.40
  -4  -2  -1  897.41   48.70
  -4  -2  -1  937.81   49.20
   4  -2   1  864.41   47.90
   4   2   1  889.31   48.80
  -4  -2   1  800.22   49.80
   4   2   1  895.81   47.10
  -4  -2   1  986.10   48.50
   4  -2  -1  833.52   47.70
  -4  -2   1  961.00   49.70
  -4   2  -1  849.61   49.20
   4   2   1  916.51   47.60
   4  -2  -1  835.42   47.20
   4   2   1  899.31   48.30
  -4  -2   1  920.11   49.90
   4   2   1  841.32   47.90
   4   2   1  884.81   47.30
   4   2   1  884.11   47.20
  -4  -2   1  940.11   49.50
  -4   2  -1  919.21   48.80
  -4  -2   1  942.41   48.30
   4  -3   1  904.81   50.79
   4  -3   1  911.31   50.89
   4  -3   1  931.21   50.89
   4   3  -1  985.00   50.39
  -4   3   1 1001.90   52.79
   4  -3   1 1001.30   52.49
  -4  -3  -1  897.91   52.29
  -4   3   1  948.81   53.19
   4  -3  -1  924.11   49.99
   4   3   1  932.71   50.29
   4   3   1  957.60   49.90
   4  -3  -1  851.31   50.59
  -4  -3   1  919.41   52.69
  -4   3  -1  921.21   52.49
  -4  -3   1  974.20   52.69
  -4   3  -1  999.00   51.89
   4  -3  -1  926.81   50.79
  -4  -3   1  988.40   52.59
   4   3   1  937.11   50.09
   4   3   1  935.31   49.80
   4   3   1  954.50   50.69
  -4  -3   1  896.71   52.29
   4   3   1  950.50   50.19
   4   3   1  972.40   51.69
   4   3   1  959.50   51.29
  -4   4   1   58.29    6.10
   4   4  -1   52.59    4.70
   4  -4   1   44.80    3.90
   4   4  -1   54.99    4.00
   4  -4   1   53.19    4.50
   4  -4   1   44.90    3.60
  -4  -4  -1   51.79   11.60
  -4  -4  -1   50.29    6.80
   4  -4   1   43.10    3.70
   4   4  -1   49.90    3.50
   4  -4   1   51.49    4.40
  -4  -4  -1   50.59    6.20
   4  -4   1   43.80    3.70
  -4  -4  -1   54.59   10.40
  -4   4   1   52.09    4.80
  -4   4   1   55.19    5.50
  -4  -4  -1   48.00    5.00
   4   4  -1   49.00    3.50
  -4  -4  -1   49.00    5.80
   4  -4   1   56.19    3.60
   4  -4   1   46.90    4.00
   4   4  -1   52.39    3.50
  -4   4   1   48.40    6.10
   4  -4   1   48.50    4.00
  -4   4   1   48.60    3.40
   4   4   1   52.19    3.70
  -4  -4   1   44.80   10.20
   4  -4  -1   45.50    3.40
   4   4   1   54.59    4.10
  -4  -4   1   49.60    6.40
  -4   4  -1   57.69    5.30
   4   4   1   52.89    3.60
  -4  -4   1   52.69    9.30
   4   4   1   47.30    3.70
   4  -4  -1   51.79    3.50
   4  -4  -1   49.50    4.30
  -4  -4   1   54.59    5.90
   4  -4  -1   45.50    3.70
  -4  -4   1   55.49    6.70
   4  -4  -1   45.40    3.70
  -4  -4   1   46.70    7.20
   4   4   1   52.79    4.90
   4  -4  -1   47.90    3.60
  -4  -4   1   48.30    6.20
  -4  -4   1   40.40    4.00
  -4  -4   1   52.99    6.90
   4  -4  -1   49.20    4.20
   4  -4  -1   58.19    4.10
  -4  -4   1   56.49    6.00
   4   4   1   47.90    3.50
  -4  -4   1   54.69    5.90
  -4   5   1   21.10    3.20
  -4   5   1   21.30    5.00
   4   5  -1   20.50    2.40
   4   5  -1   20.50    2.10
  -4  -5  -1   20.10    4.50
  -4  -5  -1   17.70    8.00
   4  -5   1   16.90    2.30
   4  -5   1   18.00    2.60
   4   5  -1   19.70    2.90
   4  -5   1   18.80    3.00
   4  -5   1   23.70    3.00
  -4  -5  -1   21.10    4.90
   4  -5   1   18.50    2.60
   4  -5   1   20.10    2.20
  -4  -5  -1   16.30    5.60
   4  -5   1   16.90    2.20
  -4  -5  -1   19.90    4.90
   4  -5   1   19.00    3.10
  -4  -5  -1   22.70    5.10
   4  -5   1   17.60    2.30
  -4  -5   1   20.50    7.40
  -4   5  -1   22.40    3.10
   4  -5  -1   21.70    2.40
   4  -5  -1   17.20    2.30
   4  -5  -1   17.90    2.60
  -4   5  -1   28.70    3.30
  -4  -5   1   13.20    5.00
  -4  -5   1   21.50    4.70
  -4  -5   1   19.90    4.50
   4  -5  -1   21.00    1.70
   4  -5  -1   18.80    3.00
   4  -5  -1   23.30    2.90
  -4  -5   1   17.10    4.20
  -4  -5   1   21.60    4.40
   4   5   1   18.60    1.70
   4  -5  -1   17.50    2.30
  -4  -5   1   14.80    4.20
   4  -5  -1   20.00    2.00
  -4   5  -1   17.90    3.60
   4   5   1   23.70    2.50
   4   5   1   20.70    2.60
   4   5   1   19.90    2.10
   4   5   1   19.60    2.20
   4   5   1   19.60    1.90
  -4   5  -1   14.30    3.60
  -4  -5   1   18.00    4.60
   4   5   1   19.10    3.10
  -4  -5   1   20.30    4.50
  -4  -5   1   15.10    7.30
  -4  -6  -1  535.75   41.70
   4   6  -1  615.24   32.30
   4  -6   1  648.04   34.10
  -4  -6  -1  552.64   35.30
  -4  -6  -1  601.04   35.90
   4   6  -1  614.94   32.30
   4  -6   1  588.24   32.80
   4  -6   1  581.94   33.50
   4  -6   1  591.44   32.60
   4  -6   1  606.34   33.10
   4  -6   1  611.64   33.00
   4   6  -1  597.74   32.40
  -4   6   1  638.34   35.60
   4  -6   1  611.34   32.40
   4   6  -1  631.34   33.10
  -4  -6   1  595.74   36.00
  -4  -6   1  619.54   36.00
   4  -6  -1  597.34   33.00
   4  -6  -1  620.74   32.70
   4  -6  -1  639.94   34.10
   4   6   1  593.34   32.40
  -4   6  -1  642.74   33.30
   4  -6  -1  595.04   32.90
  -4  -6   1  502.75   36.90
   4   6   1  600.94   32.80
   4   6   1  587.34   32.50
   4   6   1  596.04   33.10
   4  -6  -1  614.04   32.50
  -4  -6   1  513.95   40.30
  -4  -6   1  637.54   41.30
  -4  -6   1  534.85   34.70
   4   6   1  590.14   32.50
   4   6   1  599.04   32.30
   4  -6  -1  614.44   32.90
   4  -7   1    1.80    1.10
  -4  -7  -1    1.90    2.30
  -4  -7  -1    3.20    2.70
  -4   7   1    8.80    2.30
   4  -7   1    3.50    1.70
   4  -7   1    2.30    1.50
   4  -7   1    2.70    1.20
   4  -7   1    2.90    1.00
   4   7  -1    3.30    1.00
  -4  -7  -1    3.30    4.90
   4   7  -1    3.10    1.00
  -4  -7  -1    1.70    3.70
  -4   7   1    2.70    2.00
   4   7  -1    3.90    1.20
   4  -7   1    4.20    1.50
   4  -7   1    2.80    1.30
   4  -7   1    3.10    1.10
   4   7  -1    2.70    1.10
  -4  -7  -1    5.30    3.00
   4  -7  -1    2.80    1.20
   4   7   1    1.70    0.80
   4   7   1    2.00    1.20
   4   7   1    3.00    1.20
  -4  -7   1    3.70    3.20
  -4  -7   1   -0.80    4.10
   4  -7  -1    1.40    1.30
   4  -7  -1    4.00    1.50
  -4  -7   1    1.90    2.90
  -4  -7   1    2.30    2.40
   4  -7  -1    6.70    1.70
   4   7   1    2.00    0.90
   4  -7  -1    2.00    1.10
   4   7   1    2.20    1.10
   4   7   1    2.10    0.90
   4   7   1    6.60    1.60
   4  -7  -1    4.50    1.70
  -4  -7   1    1.40    2.40
   4   7   1    6.20    1.30
  -4  -8  -1   12.20    3.80
   4   8  -1   11.20    1.50
  -4   8   1   11.50    1.30
   4  -8   1   12.50    1.80
   4   8  -1   12.00    1.50
  -4  -8  -1    8.70    4.60
  -4   8   1    7.00    2.20
  -4  -8  -1   13.00    2.80
   4  -8   1   11.00    1.70
   4  -8   1   15.30    2.40
   4  -8   1   11.20    1.70
   4   8  -1   10.50    1.30
   4   8  -1   13.60    1.50
   4  -8   1   13.10    1.70
  -4  -8  -1   11.30    2.40
   4  -8  -1   14.70    2.10
  -4  -8   1    9.90    1.80
   4   8   1   11.60    1.50
   4  -8  -1   12.90    1.60
  -4  -8   1   10.30    3.10
   4  -8  -1    9.70    1.60
  -4  -8   1    7.90    3.90
   4   8   1   11.20    1.20
   4   8   1   11.90    1.60
   4   8   1   11.30    1.40
   4  -8  -1   13.50    1.90
   4   8   1   12.20    1.30
   4  -8  -1   11.50    1.60
   4   8   1   12.40    1.50
  -4  -8   1   11.40    2.60
   4   0   2  797.72   42.00
  -4   0   2  855.41   42.70
   4   0   2  824.32   43.20
  -4   0   2  781.52   44.50
  -4   0  -2  745.83   42.90
  -4   0   2  772.92   43.10
  -4   0   2  818.02   43.80
   4   0   2  806.72   42.10
   4   0   2  791.82   42.50
   4   0   2  812.82   42.30
   4   0  -2  714.23   42.00
  -4   0  -2  826.12   43.40
   4   0  -2  733.63   41.90
  -4   0   2  815.92   43.10
   4  -1   2   55.39    3.80
   4   1  -2   72.89    4.20
   4   1  -2   70.89    3.70
  -4   1   2   59.29    4.70
  -4   1   2   58.99    6.20
   4  -1   2   62.09    4.90
   4  -1   2   69.99    4.60
  -4   1   2   67.69    5.20
  -4   1   2   62.49    4.30
  -4   1   2   58.39    4.60
   4  -1   2   58.09    4.30
  -4  -1  -2   65.39    5.20
  -4  -1  -2   59.79    4.90
   4  -1   2   56.69    4.00
  -4   1   2   53.89    5.60
   4  -1   2   58.79    4.30
  -4   1  -2   56.09    5.00
   4   1   2   57.99    3.80
  -4  -1   2   46.10    6.00
   4  -1  -2   52.99    4.00
   4   1   2   60.29    4.00
   4   1   2   59.79    3.80
   4   1   2   62.99    4.60
  -4  -1   2   43.80    7.00
  -4   1  -2   62.29    5.00
   4   1   2   66.19    4.20
   4   1   2   59.99    4.20
   4  -2   2 1912.71  108.19
  -4   2   2 2033.60  110.59
  -4   2   2 2002.70  108.79
  -4   2   2 1987.90  108.19
   4   2  -2 2033.50  107.59
   4  -2   2 1958.50  108.19
  -4   2   2 2029.90  108.59
  -4   2   2 1968.40  110.99
   4  -2   2 2163.38  109.29
   4  -2   2 1948.21  107.39
   4  -2   2 1954.20  108.09
  -4   2   2 2197.98  107.89
  -4  -2  -2 2323.37  109.59
   4   2   2 2094.29  107.59
  -4  -2   2 1817.12  109.89
  -4   2  -2 2121.39  108.99
   4   2   2 2087.89  107.29
   4   2   2 2120.19  107.69
   4  -2  -2 1954.90  107.29
  -4  -2   2 2053.09  110.99
   4   2   2 2168.78  108.49
  -4  -2   2 2095.39  108.99
  -4  -2   2 1953.40  111.09
   4   2   2 2042.20  107.29
  -4  -2   2 2120.49  108.69
  -4  -2   2 2002.90  109.89
  -4  -2   2 2214.88  110.39
   4   2   2 2252.57  107.79
  -4  -2   2 1802.52  108.29
   4  -2  -2 1839.12  107.79
   4  -3   2 1250.27   67.99
  -4   3   2 1238.38   70.89
   4  -3   2 1297.97   67.19
   4  -3   2 1312.87   68.29
  -4  -3  -2 1293.47   69.49
   4  -3   2 1259.07   67.99
  -4   3   2 1324.37   67.49
  -4   3   2 1157.38   68.39
  -4   3   2 1298.77   68.49
   4   3  -2 1321.47   67.39
   4  -3   2 1347.37   69.49
  -4   3   2 1266.47   67.89
  -4  -3   2 1320.57   70.49
   4   3   2 1325.47   67.29
   4   3   2 1112.59   67.99
  -4  -3   2 1141.29   69.49
   4   3   2 1313.27   68.19
   4   3   2 1335.47   67.29
   4  -3  -2 1290.47   66.99
   4   3   2 1105.79   69.19
   4   3   2 1256.17   66.79
  -4  -3   2 1324.07   68.59
  -4  -3   2 1239.88   69.59
  -4  -3   2 1263.67   68.89
   4   3   2 1268.57   66.89
   4   3   2 1254.97   67.09
   4  -3  -2 1177.38   67.69
  -4   3  -2 1369.56   68.89
  -4  -3   2 1246.58   70.59
  -4   4   2  395.56   22.50
  -4   4   2  367.46   19.30
   4  -4   2  325.97   20.30
   4  -4   2  322.67   19.80
   4  -4   2  385.16   20.50
   4  -4   2  355.76   22.20
  -4  -4  -2  368.96   23.20
   4  -4   2  333.07   19.80
   4  -4   2  368.26   20.80
   4   4  -2  359.16   20.90
  -4   4   2  368.36   19.10
  -4   4   2  363.16   19.20
  -4   4   2  359.96   23.90
   4  -4   2  358.76   20.20
   4  -4   2  366.26   20.70
   4  -4   2  331.57   19.90
   4   4  -2  347.67   19.30
  -4   4   2  347.47   19.90
  -4   4   2  345.57   19.50
   4  -4   2  367.66   19.70
  -4   4   2  374.56   21.30
   4  -4   2  349.67   20.90
   4   4  -2  369.96   19.80
   4  -4   2  331.27   19.80
  -4   4   2  349.17   19.20
  -4   4   2  358.26   19.60
  -4   4   2  328.37   20.30
  -4   4   2  371.66   21.50
  -4  -4  -2  358.26   22.40
   4  -4   2  338.87   19.70
   4  -4  -2  329.87   20.20
   4   4   2  366.76   19.00
  -4  -4   2  341.07   27.40
   4  -4  -2  350.06   20.40
  -4  -4   2  350.66   22.30
   4   4   2  347.87   19.10
   4   4   2  377.96   20.50
  -4  -4   2  334.47   22.80
  -4  -4   2  352.06   20.30
   4   4   2  354.16   19.50
   4   4   2  362.66   19.60
  -4  -4   2  340.87   20.10
   4   4   2  349.87   19.50
  -4  -4   2  286.87   28.00
   4  -4  -2  329.07   19.60
  -4  -4   2  344.57   21.20
  -4  -4   2  368.66   22.70
  -4  -4   2  356.26   22.90
   4  -4  -2  328.27   19.50
  -4   4  -2  380.26   21.50
   4  -4  -2  362.56   19.50
   4   4   2  355.46   19.40
   4  -4  -2  313.67   19.70
  -4  -4   2  337.57   22.90
   4   4   2  347.17   19.10
  -4  -4   2  361.76   23.40
  -4  -4   2  362.96   22.30
   4   4   2  360.06   19.70
   4   4   2  362.06   21.70
  -4  -4   2  365.46   20.80
   4   4   2  350.86   19.90
   4   4   2  355.56   19.20
   4   5  -2  325.77   17.80
  -4   5   2  335.57   20.40
  -4  -5  -2  305.47   20.60
  -4  -5  -2  292.87   20.40
  -4   5   2  317.87   17.00
   4   5  -2  324.67   17.30
  -4   5   2  289.87   18.20
  -4   5   2  301.67   17.00
  -4   5   2  305.07   17.30
   4  -5   2  287.07   17.70
  -4   5   2  308.47   17.00
   4  -5   2  333.17   17.50
  -4  -5  -2  261.67   27.00
   4  -5   2  301.07   18.80
   4   5  -2  305.77   18.90
   4  -5   2  317.47   18.70
   4  -5   2  328.27   18.00
  -4   5   2  343.57   19.30
  -4  -5  -2  302.07   20.50
   4  -5   2  301.97   17.90
   4  -5   2  315.07   20.30
   4  -5   2  311.37   17.70
  -4  -5  -2  289.77   19.60
   4  -5   2  297.77   17.70
  -4   5   2  301.97   21.90
   4   5  -2  313.07   17.10
   4  -5   2  301.37   18.40
   4   5  -2  314.87   17.10
   4  -5   2  310.57   17.40
  -4  -5   2  282.07   17.90
  -4  -5   2  320.47   20.30
  -4  -5   2  303.57   20.60
  -4  -5   2  328.07   20.30
   4   5   2  319.17   17.20
   4  -5  -2  292.77   17.70
   4  -5  -2  300.57   17.40
   4   5   2  334.17   17.60
  -4  -5   2  265.67   20.70
  -4  -5   2  295.57   20.70
   4   5   2  321.67   16.90
  -4  -5   2  327.77   26.10
  -4  -5   2  310.37   23.40
   4   5   2  312.67   17.70
  -4   5  -2  335.67   19.70
  -4  -5   2  314.27   21.10
   4   5   2  319.27   18.20
  -4   5  -2  282.67   20.90
  -4  -5   2  259.67   25.70
   4  -5  -2  300.47   17.50
   4  -5  -2  341.87   17.30
   4   5   2  308.87   17.30
  -4  -5   2  279.57   20.00
  -4  -5   2  323.87   21.20
   4  -5  -2  339.67   19.30
   4   5   2  306.17   17.50
   4   5   2  294.97   19.60
   4  -5  -2  293.17   18.40
   4  -6   2  210.78   11.60
  -4  -6  -2  167.68   13.60
  -4  -6  -2  184.58   21.10
  -4  -6  -2  163.28   17.00
  -4   6   2  193.18   13.00
   4  -6   2  214.48   13.10
   4  -6   2  209.58   12.00
  -4   6   2  196.68   11.10
  -4  -6  -2  183.98   14.40
  -4   6   2  198.18   11.30
   4  -6   2  212.28   12.20
  -4  -6  -2  184.88   14.60
   4   6  -2  206.88   11.40
   4  -6   2  228.98   15.20
   4   6  -2  188.98   11.90
   4   6  -2  205.18   11.40
   4   6  -2  202.78   11.60
  -4   6   2  211.88   14.60
   4  -6   2  210.38   12.30
   4  -6   2  211.68   11.80
   4  -6   2  216.78   11.60
   4   6   2  199.78   11.70
   4   6   2  188.78   12.30
   4  -6  -2  210.38   11.20
   4  -6  -2  208.68   11.40
   4   6   2  199.18   11.20
   4   6   2  189.08   11.10
   4  -6  -2  199.18   11.80
  -4  -6   2  205.68   14.10
   4  -6  -2  198.78   12.00
   4  -6  -2  198.88   11.40
   4   6   2  188.58   11.70
  -4  -6   2  166.18   18.60
   4  -6  -2  189.88   12.80
  -4  -6   2  195.68   18.50
   4   6   2  199.68   11.80
  -4  -6   2  196.28   14.70
  -4  -6   2  195.98   14.80
   4   6   2  199.58   11.50
  -4  -6   2  175.58   13.70
   4   6   2  200.98   11.20
   4  -6  -2  200.48   11.60
  -4  -6   2  193.18   14.80
   4  -6  -2  189.08   12.00
   4   6   2  204.68   12.00
   4  -6  -2  199.58   11.50
  -4  -6   2  188.08   14.10
  -4  -7  -2    4.90    5.80
   4  -7   2    3.60    1.30
   4  -7   2    2.20    1.20
   4  -7   2    2.60    1.50
  -4  -7  -2    1.50    1.90
  -4  -7  -2    2.10    3.70
   4   7  -2    1.90    1.00
  -4   7   2    2.80    0.90
   4  -7   2    1.30    1.20
  -4   7   2    3.00    2.00
   4  -7   2    2.00    1.60
  -4   7   2    1.30    0.90
   4   7  -2    2.50    0.90
   4   7  -2    1.70    0.90
  -4  -7  -2    9.90    2.90
  -4  -7  -2    1.30    2.30
   4  -7   2    2.50    1.00
   4   7   2    1.70    1.10
   4   7   2    3.50    0.80
   4  -7  -2    2.30    1.10
   4  -7  -2    2.30    1.30
  -4  -7   2    1.90    3.90
   4  -7  -2    2.60    1.30
  -4  -7   2    1.40    2.60
  -4  -7   2    2.10    2.10
   4   7   2    1.90    0.90
   4   7   2    2.50    0.80
  -4  -7   2    3.30    3.90
   4   7   2    2.10    0.90
  -4   7  -2    2.30    1.50
  -4  -7   2    0.30    2.20
   4   7   2    2.10    1.10
  -4  -7   2    2.10    2.50
   4  -7  -2    2.10    1.10
  -4  -7   2    2.30    1.60
   4   7   2    2.70    1.10
  -4   8   2   73.19    4.60
  -4  -8  -2   73.19    7.90
   4  -8   2   89.09    5.30
   4   8  -2   77.49    4.90
  -4   8   2   72.39    4.60
  -4  -8  -2   71.09    6.30
   4   8  -2   73.09    4.70
   4  -8   2   89.39    5.30
   4  -8   2   92.09    5.60
  -4  -8  -2   67.49   10.70
   4   8  -2   74.19    4.70
  -4  -8  -2   70.69    6.00
   4  -8   2   82.79    5.00
  -4   8   2   65.79    5.90
  -4   8   2   68.99    4.70
   4  -8  -2   90.89    5.30
  -4  -8   2   79.69    5.50
   4   8   2   70.39    4.80
  -4  -8   2   74.89    5.90
   4  -8  -2   86.59    4.90
   4   8   2   82.49    4.90
  -4  -8   2   75.59    5.90
  -4  -8   2   71.89    5.20
   4   8   2   73.79    4.60
   4   8   2   73.09    4.70
   4  -8  -2   86.09    5.10
   4   8   2   78.09    4.80
   4   8   2   76.69    4.60
   4  -8  -2   83.39    5.00
  -4  -8   2   77.29    9.00
   4   0   3   -0.10    0.70
   4   0   3    0.10    0.60
   4   0  -3    0.10    0.40
  -4   0   3   -1.40    2.40
  -4   0   3    0.00    0.50
  -4   0  -3    0.50    1.10
   4   0   3    0.70    0.50
  -4   0   3    0.50    2.00
   4   0   3    0.20    0.40
  -4   0   3    0.40    1.00
  -4   0   3    1.20    1.20
   4   0   3   -0.10    0.50
  -4   0   3    0.20    1.20
   4   0   3    0.00    0.50
  -4   0   3   -0.10    0.80
  -4   1   3   51.09    4.50
   4   1  -3   53.09    3.70
   4  -1   3   57.09    4.60
  -4   1   3   45.10    6.60
   4  -1   3   50.19    3.70
  -4   1   3   50.69    4.50
  -4   1   3   54.99    3.80
   4  -1   3   43.90    3.60
   4  -1   3   47.50    3.90
  -4   1   3   49.80    4.30
   4  -1   3   50.69    3.40
  -4  -1   3   49.80    4.70
   4  -1  -3   42.40    3.50
  -4  -1   3   43.20    5.70
   4   1   3   51.19    4.10
  -4  -1   3   48.50    4.90
   4  -1  -3   46.70    3.30
   4   1   3   42.80    3.80
  -4  -1   3   51.29    4.90
  -4   1  -3   50.79    4.60
  -4  -1   3   50.69    6.40
   4   1   3   51.69    3.70
   4   1   3   51.79    3.40
  -4  -1   3   52.59    4.00
   4   1   3   51.19    3.70
  -4  -1   3   50.09    4.60
  -4   2   3   81.89    5.30
   4  -2   3   85.09    5.90
   4  -2   3   79.09    5.20
  -4   2   3   87.79    6.10
  -4   2   3   77.79    6.40
  -4   2   3   70.99    7.90
  -4  -2  -3   83.19    6.80
   4  -2   3   79.89    6.40
   4  -2   3   87.69    6.30
   4  -2   3   71.49    5.60
   4   2  -3   76.89    5.20
  -4   2   3   76.29    6.10
   4  -2   3   81.59    6.10
  -4  -2   3   60.19    9.60
  -4  -2   3   81.59    6.50
   4   2   3   79.99    5.20
  -4  -2   3   73.09    7.50
   4  -2  -3   73.49    5.00
   4   2   3   82.29    5.80
   4   2   3   80.69    5.20
  -4   2  -3   81.79    6.40
  -4  -2   3   80.39    7.80
  -4  -2   3   78.29    6.80
   4   2   3   91.09    5.60
   4   2   3   76.19    4.90
  -4  -2   3   73.89    6.70
   4   2   3   79.59    4.90
  -4  -2   3   70.99    7.10
  -4  -2   3   75.89    5.90
  -4   3   3    2.10    0.80
   4  -3   3    7.00    3.70
  -4   3   3    5.70    1.10
   4  -3   3    2.90    1.20
   4  -3   3    1.40    1.50
  -4  -3  -3    2.80    2.40
   4  -3   3    2.70    1.50
  -4   3   3    1.90    0.80
   4  -3   3    1.30    1.10
   4   3  -3    2.60    1.00
  -4   3   3    2.00    0.90
   4  -3   3    1.60    1.40
   4  -3   3    2.10    1.20
  -4   3   3    2.30    1.80
  -4   3   3   -1.80    2.60
   4  -3   3    3.00    1.50
  -4   3   3    1.30    2.40
   4  -3   3    2.70    1.70
  -4   3   3    4.30    3.10
   4  -3   3    2.50    1.30
   4  -3   3    5.20    1.40
  -4   3   3    2.20    0.90
  -4   3   3    1.80    1.00
  -4   3   3    2.80    0.90
   4  -3   3    5.90    1.60
  -4   3   3    3.10    1.00
  -4   3   3    2.30    0.70
  -4   3   3    2.20    1.30
  -4   3   3    2.30    1.20
  -4   3   3    1.70    0.70
  -4   3   3    2.30    1.80
   4  -3   3    1.60    1.00
  -4   3   3    2.40    1.00
  -4   3   3    1.90    0.90
   4  -3   3    3.50    2.00
  -4   3   3    1.70    1.00
  -4   3   3    2.00    0.80
  -4   3   3    4.10    0.90
  -4   3   3    1.70    1.10
   4  -3   3    1.30    1.70
  -4   3   3    2.60    1.10
   4  -3   3    2.00    0.90
   4  -3   3    3.00    1.70
   4  -3   3    1.50    1.20
  -4   3   3    6.30    2.40
   4  -3   3    3.20    1.10
  -4   3   3    1.80    0.90
   4  -3   3    2.40    1.10
   4  -3   3    4.30    2.00
  -4   3   3    1.90    0.80
   4   3   3    2.40    1.00
  -4  -3   3    7.70    2.20
   4   3   3    4.10    1.00
  -4  -3   3    1.40    1.10
   4   3   3   -0.40    1.80
   4   3   3    5.50    1.00
   4   3   3    2.80    1.10
  -4  -3   3   -0.60    2.90
   4   3   3    1.60    0.70
  -4  -3   3   -0.40    2.60
   4  -3  -3    1.60    1.10
  -4  -3   3    1.40    2.00
  -4  -3   3    2.80    2.30
   4   3   3    1.90    0.80
   4   3   3    3.00    0.80
  -4  -3   3    4.80    2.50
   4   3   3    3.40    0.80
  -4  -3   3    1.60    1.20
  -4  -3   3    2.40    3.00
  -4  -3   3    7.80    1.50
  -4  -3   3    2.00    2.50
  -4   3  -3    1.20    1.60
   4   3   3    2.50    1.00
   4   3   3    2.90    1.00
   4   3   3    1.80    0.80
  -4  -3   3    3.40    1.90
   4   3   3    2.10    1.20
  -4  -3   3    1.60    3.10
  -4  -3   3    1.30    1.60
  -4  -3   3    0.50    2.10
  -4  -3   3    3.30    1.50
  -4  -3   3    4.40    3.30
  -4  -3   3    2.40    2.70
   4   3   3    4.90    1.30
  -4  -3   3    8.50    3.70
   4   3   3    4.30    0.80
   4   3   3    4.20    0.90
   4   3   3    3.90    0.80
  -4  -3   3    3.10    1.70
  -4  -3   3    5.20    1.90
  -4  -3   3    2.30    2.80
  -4  -3   3    2.20    1.50
  -4  -3   3    4.30    1.50
  -4  -3   3    1.90    2.50
   4   3   3    2.20    1.20
  -4  -3   3    2.00    2.10
   4   3   3    3.00    0.90
   4  -3  -3    1.80    0.80
  -4  -3   3    1.70    1.40
   4   3   3    2.60    0.80
  -4  -3   3    2.10    1.80
   4   3   3   -0.10    1.20
   4  -3  -3    5.30    1.30
  -4  -3   3    2.30    5.00
   4   3   3    2.50    0.90
   4   3   3    1.20    1.10
  -4   4   3   17.30    3.10
   4  -4   3   24.90    3.60
   4  -4   3   18.70    2.60
  -4   4   3   19.30    1.80
   4  -4   3   21.70    3.20
   4  -4   3   18.40    2.60
  -4   4   3   20.50    2.20
   4  -4   3   23.50    3.50
  -4   4   3   24.40    2.20
   4  -4   3   18.80    2.70
   4  -4   3   18.90    2.60
   4  -4   3   20.90    3.20
   4  -4   3   23.20    2.30
   4  -4   3   16.80    2.60
   4  -4   3   18.10    2.70
  -4   4   3   20.10    2.40
   4  -4   3   23.70    4.20
  -4   4   3   19.60    2.30
  -4   4   3   23.10    4.50
  -4   4   3   21.30    4.20
  -4   4   3   18.50    6.00
  -4   4   3   20.60    2.50
  -4   4   3   22.80    2.30
   4  -4   3   20.30    3.60
   4  -4   3   20.20    2.40
  -4   4   3   21.50    2.10
  -4   4   3   18.80    2.30
  -4   4   3   20.90    2.00
  -4  -4  -3   21.40    4.80
   4  -4   3   18.00    3.20
  -4   4   3   22.10    1.90
   4  -4   3   23.20    3.20
   4  -4   3   15.30    2.60
   4  -4   3   20.70    2.50
   4  -4   3   20.80    3.00
   4  -4   3   25.30    5.80
  -4   4   3   21.60    2.10
   4   4  -3   27.80    2.60
  -4   4   3   25.20    2.00
  -4   4   3   18.40    2.90
  -4   4   3   19.90    3.80
  -4   4   3   20.80    2.30
   4  -4   3   24.30    3.20
   4   4   3   19.80    2.10
   4  -4  -3   22.10    2.30
  -4  -4   3   26.20    8.00
   4   4   3   18.60    4.80
   4   4   3   20.30    2.20
   4   4   3   17.40    2.50
   4   4   3   19.80    2.10
   4   4   3   20.10    2.50
   4   4   3   15.40    2.90
   4   4   3   19.40    2.00
   4   4   3   21.00    1.80
   4   4   3   20.10    1.90
   4  -4  -3   17.10    2.30
   4   4   3   22.10    1.90
  -4  -4   3   27.40    3.10
   4   4   3   19.10    1.90
  -4   4  -3   17.00    3.40
   4   4   3   23.40    2.30
   4   4   3   22.70    1.90
  -4  -4   3   30.60    5.90
  -4  -4   3   34.30    6.30
   4   4   3   19.70    1.90
   4   4   3   22.40    2.30
  -4  -4   3   21.50    4.90
   4   4   3   20.00    2.20
   4   4   3   20.30    2.50
   4   4   3   21.20    2.00
   4  -4  -3   17.80    2.50
   4   4   3   20.60    2.10
   4   4   3   20.60    1.90
  -4  -4   3   25.60    4.80
  -4   5   3  656.53   34.70
   4   5  -3  648.24   35.40
  -4   5   3  660.83   34.80
  -4   5   3  650.83   35.10
   4  -5   3  761.62   35.80
  -4  -5  -3  599.34   38.10
   4  -5   3  634.64   35.50
   4  -5   3  664.23   35.80
  -4   5   3  647.44   34.80
   4  -5   3  641.94   35.70
   4  -5   3  661.93   35.50
  -4   5   3  629.14   35.20
   4  -5   3  626.74   35.70
   4  -5   3  680.03   35.80
  -4   5   3  646.54   35.10
   4  -5   3  687.13   36.80
  -4   5   3  667.43   38.70
  -4   5   3  687.43   34.90
   4  -5   3  619.44   36.20
   4   5  -3  656.33   34.80
  -4  -5  -3  583.14   37.70
   4  -5   3  693.63   36.00
   4  -5   3  663.83   36.30
  -4   5   3  576.44   36.20
  -4   5   3  659.43   34.90
   4  -5   3  636.14   36.50
   4  -5   3  733.33   36.40
  -4   5   3  630.24   35.10
  -4   5   3  712.43   38.50
   4   5  -3  664.73   35.00
  -4   5   3  631.04   37.50
  -4  -5  -3  533.25   44.70
   4  -5   3  651.73   38.30
  -4   5   3  660.93   35.50
   4   5   3  634.54   34.60
   4   5   3  701.33   35.50
   4   5   3  700.03   34.80
  -4  -5   3  632.14   41.60
   4   5   3  632.04   35.20
   4  -5  -3  640.14   35.40
   4   5   3  648.34   34.80
   4   5   3  675.63   36.50
   4   5   3  568.04   35.50
  -4  -5   3  650.93   38.10
   4   5   3  641.44   35.10
   4   5   3  621.74   34.80
  -4   5  -3  662.13   37.30
   4   5   3  634.04   34.70
   4   5   3  646.54   35.00
  -4  -5   3  608.54   38.60
   4   5   3  622.84   35.00
  -4  -5   3  625.24   35.90
   4  -5  -3  633.54   35.20
  -4  -5   3  640.34   39.00
   4   5   3  660.03   35.00
   4  -5  -3  703.33   35.20
   4   5   3  660.23   35.60
  -4  -5   3  661.93   35.90
  -4  -5   3  653.53   38.30
  -4  -5   3  640.14   43.90
   4  -5  -3  612.04   35.40
  -4  -5   3  656.03   36.40
   4   5   3  635.34   35.30
  -4  -5   3  598.04   38.50
   4   5   3  654.73   34.50
  -4  -5   3  680.53   39.00
  -4  -5   3  583.14   44.80
   4   5   3  672.93   35.00
  -4   6   3   15.10    3.50
   4  -6   3   20.40    2.80
   4  -6   3   19.50    3.30
  -4   6   3   14.60    2.60
  -4   6   3   15.80    2.40
  -4   6   3   14.30    2.00
  -4   6   3   15.60    1.80
  -4   6   3   18.60    2.50
   4  -6   3   15.10    2.70
  -4   6   3   18.70    2.10
   4   6  -3   17.20    2.10
  -4   6   3   14.90    3.80
   4   6  -3   16.80    1.90
   4  -6   3   17.00    2.90
   4   6  -3   16.60    2.00
  -4   6   3   15.10    3.40
   4  -6   3   19.40    2.60
   4  -6   3   20.00    2.80
  -4   6   3   15.20    1.80
   4  -6   3   16.10    3.70
   4   6  -3   16.30    2.20
   4  -6   3   22.60    2.80
   4  -6   3   19.00    2.40
  -4  -6   3   22.20    4.70
  -4  -6   3   19.20    6.50
  -4  -6   3   14.30    3.90
   4  -6  -3   19.50    2.60
   4  -6  -3   22.80    2.60
  -4  -6   3   14.40    2.50
  -4  -6   3   14.10    4.20
  -4  -6   3   17.00    4.30
  -4  -6   3   17.50    4.10
   4   6   3   23.20    2.40
  -4  -6   3   19.30    3.10
  -4   6  -3   21.00    3.00
   4   6   3   23.70    2.20
   4   6   3   25.10    2.60
   4  -6  -3   20.60    2.40
  -4  -6   3   22.40    4.80
  -4   6  -3   20.00    4.00
   4  -6  -3   18.70    2.10
  -4  -6   3   16.10    6.40
  -4  -7  -3   23.30    3.40
   4  -7   3   26.30    4.20
  -4  -7  -3   19.70    3.10
  -4  -7  -3   22.00    4.20
   4   7  -3   23.30    2.10
  -4   7   3   23.10    2.00
   4  -7   3   23.80    2.80
   4  -7   3   25.10    2.80
   4  -7   3   25.00    3.30
   4   7  -3   22.50    2.30
  -4   7   3   22.50    2.40
  -4   7   3   23.60    2.10
  -4  -7  -3   19.90    3.80
  -4   7   3   22.60    2.30
  -4   7   3   22.40    2.50
  -4   7   3   22.70    3.60
  -4  -7  -3   26.90    9.00
  -4  -7  -3   19.50    5.30
  -4   7   3   20.80    3.80
   4   7  -3   23.70    2.20
   4  -7   3   24.30    2.50
   4   7   3   22.70    2.40
  -4  -7   3   19.60    3.90
   4   7   3   22.70    2.20
   4   7   3   22.30    2.30
   4   7   3   21.30    1.90
  -4  -7   3   24.40    3.50
   4  -7  -3   26.10    2.40
   4  -7  -3   25.30    2.60
   4  -7  -3   29.60    2.20
  -4  -7   3   22.80    3.10
  -4  -7   3   18.70    5.40
   4  -7  -3   25.10    2.70
   4  -7  -3   27.40    2.30
   4   7   3   20.50    2.00
  -4   7  -3   25.70    3.10
   4   7   3   22.70    2.10
  -4  -7   3   25.60    4.10
  -4  -7   3   16.60    5.10
   4   7   3   22.20    1.90
  -4  -7   3   20.10    2.80
  -4  -8  -3   39.40    4.70
   4   8  -3   42.00    2.90
  -4   8   3   34.60    4.10
   4  -8   3   46.00    3.20
  -4   8   3   41.80    2.70
  -4  -8  -3   41.40    5.50
   4  -8   3   47.50    3.20
   4   8  -3   41.70    2.80
  -4  -8   3   40.50    3.70
   4  -8  -3   51.09    3.20
   4  -8  -3   48.40    3.10
   4   8   3   41.70    2.80
   4   8   3   43.90    2.90
  -4  -8   3   41.60    3.20
  -4   0   4 2120.09  118.79
   4   0   4 2062.69  116.59
   4   0   4 2311.07  116.99
   4   0   4 2093.59  116.69
   4   0  -4 1898.21  116.19
  -4   0   4 2443.96  116.99
   4   0   4 2196.98  116.49
  -4   0   4 2312.07  116.39
  -4   0   4 2189.08  118.39
  -4   0   4 2179.78  118.29
   4   0   4 2175.48  116.79
   4   0   4 2224.18  116.49
  -4   0   4 2291.57  116.59
  -4   0   4 2251.07  116.39
   4   0   4 2403.26  119.29
   4   0   4 2204.98  116.99
   4   0   4 2269.27  116.49
   4   0   4 2169.28  116.69
  -4   0   4 2501.15  120.59
  -4   0   4 2438.36  119.49
  -4   0   4 2322.27  117.19
  -4   0   4 2207.68  117.99
  -4   0   4 2303.47  116.69
  -4   0   4 2104.39  118.69
   4   0   4 2076.09  116.59
  -4   0   4 2263.87  117.29
   4   0   4 2147.29  116.39
   4   0   4 2063.69  116.79
  -4   0   4 2100.29  118.19
  -4   0   4 2095.09  119.19
   4   0   4 2065.19  116.39
  -4   0   4 2245.98  117.69
   4   0   4 2313.17  117.59
  -4   0   4 2218.28  118.19
   4   0   4 2074.49  116.89
  -4   0   4 2278.27  116.79
   4   0   4 2208.08  116.89
   4   0   4 2305.07  116.79
  -4   0   4 2194.38  118.09
   4   0   4 2159.88  116.49
  -4   0  -4 2102.09  117.69
  -4   0   4 2092.49  121.09
  -4   0   4 2288.37  116.39
  -4   0   4 2272.37  116.69
   4   0   4 2161.78  117.19
  -4   0   4 2377.16  116.39
  -4   1   4  157.08   11.00
   4  -1   4  133.49    8.60
  -4   1   4  139.69    8.30
  -4   1   4  149.59    8.30
  -4   1   4  147.09    8.70
  -4   1   4  133.69   11.50
   4  -1   4  123.89    8.70
  -4   1   4  151.48    8.70
  -4   1   4  143.99    9.90
  -4   1   4  149.69    9.10
  -4   1   4  150.18   10.10
   4  -1   4  143.49    9.00
  -4   1   4  146.09    8.70
  -4   1   4  147.39    8.60
  -4   1   4  158.98    8.60
  -4   1   4  114.29   12.80
  -4   1   4  151.38   10.80
  -4   1   4  146.89    8.30
   4  -1   4  120.19    9.20
  -4   1   4  150.48    9.90
   4  -1   4  128.69    8.90
   4  -1   4  137.49    8.60
   4  -1   4  145.29    8.60
   4  -1   4  152.58    9.40
   4  -1   4  147.69    8.60
   4  -1   4  141.19    8.50
   4  -1   4  142.49    8.80
  -4   1   4  144.69    8.50
  -4   1   4  141.49   10.70
   4  -1   4  135.59    8.70
   4  -1   4  159.18    9.80
   4  -1   4  139.29    8.80
   4  -1   4  145.99    8.60
   4  -1   4  144.99    8.60
  -4   1   4  150.68    8.30
  -4   1   4  146.09    9.00
  -4   1   4  149.09    8.70
  -4   1   4  144.59   10.30
   4   1  -4  148.29    8.80
  -4   1   4  114.69   11.40
  -4   1   4  146.59    8.30
   4  -1   4  136.59    9.20
   4  -1   4  162.78   12.50
   4  -1   4  152.38   10.80
  -4   1   4  160.48   11.60
  -4   1   4  136.89    9.80
  -4   1   4  153.38    8.80
   4  -1   4  144.59    9.00
  -4   1   4  142.79    8.80
   4  -1   4  131.19    8.60
  -4   1   4  144.79   10.80
   4   1   4  127.49    8.30
   4   1   4  136.49    8.60
   4   1   4  143.09    8.70
  -4  -1   4  136.09   10.30
   4  -1  -4  136.29    8.40
  -4  -1   4  144.59   10.20
  -4  -1   4  150.18    8.50
  -4   1  -4  144.69    9.90
  -4  -1   4  153.08   10.10
  -4  -1   4  157.08    9.40
   4   1   4  133.99    8.50
  -4  -1   4  149.59    8.50
   4   1   4  156.68    9.40
  -4  -1   4  142.89    9.00
   4   1   4  137.89    8.30
  -4  -1   4  157.18    8.90
  -4  -1   4  151.08   10.30
  -4  -1   4  150.38    8.80
   4   1   4  146.29    9.20
  -4  -1   4  142.59   10.70
   4   1   4  139.89    8.80
  -4  -1   4  163.18   11.30
  -4  -1   4  126.99   14.80
   4   1   4  137.59    8.30
   4   1   4  138.99    8.30
   4   1   4  138.09    8.40
  -4  -1   4  146.19    9.90
   4   1   4  144.49    8.90
   4   1   4  137.69    8.50
  -4  -1   4  161.98   12.00
   4   1   4  145.99    8.70
  -4  -1   4  154.98    8.70
   4   1   4  137.49    8.70
  -4  -1   4  144.79   10.80
  -4  -1   4  146.79    8.40
  -4  -1   4  159.68    9.50
  -4  -1   4  134.39   10.50
   4   1   4  147.69    8.20
  -4  -1   4  154.78    8.90
  -4  -1   4  129.79   10.30
  -4  -1   4  132.49   11.80
   4   1   4  138.59    8.60
   4   1   4  142.39    8.40
   4   1   4  130.89    9.10
  -4  -1   4  151.58    9.60
  -4  -1   4  155.58    8.40
   4   1   4  147.69    8.60
   4   1   4  134.09    8.40
  -4  -1   4   96.79   12.60
  -4  -1   4  138.09   10.00
   4   1   4  148.09    8.70
   4   1   4  133.39    9.00
   4   1   4  138.99    8.90
  -4   2   4   12.30    4.10
  -4   2   4   16.80    2.20
   4  -2   4   11.60    2.50
  -4   2   4   11.80    2.40
   4  -2   4   11.20    2.10
  -4   2   4   16.40    3.70
  -4   2   4   14.20    2.00
   4  -2   4   12.70    1.90
  -4   2   4   15.20    1.70
   4  -2   4   14.10    2.20
  -4   2   4   13.40    1.60
  -4   2   4    7.60    3.70
   4  -2   4   11.60    1.80
   4  -2   4   13.30    1.70
  -4   2   4   12.80    1.70
  -4   2   4   14.10    2.90
  -4   2   4   13.40    1.60
  -4   2   4   17.50    2.30
   4  -2   4   13.50    3.10
  -4   2   4   16.90    2.30
  -4   2   4   14.80    2.40
  -4   2   4   12.50    3.10
  -4   2   4   -3.00    4.10
   4  -2   4   13.30    2.00
   4  -2   4   16.40    4.60
   4  -2   4   12.20    2.40
   4  -2   4   14.80    1.90
  -4   2   4   13.80    1.50
   4  -2   4   15.20    2.20
  -4   2   4   12.80    1.60
  -4   2   4   13.40    3.10
   4  -2   4   15.10    2.40
   4  -2   4   15.70    2.90
   4  -2   4   16.50    3.20
   4  -2   4   12.50    2.00
  -4   2   4   15.00    3.80
  -4   2   4   10.20    3.00
  -4   2   4   19.50    2.30
   4   2  -4   12.20    1.80
  -4   2   4   14.40    1.90
   4  -2   4   13.50    2.50
   4  -2   4   14.90    2.10
  -4   2   4   18.70    3.70
  -4   2   4   13.80    1.80
   4  -2   4    9.90    1.90
  -4  -2  -4   17.60    3.80
  -4   2   4   13.10    1.60
   4  -2   4   13.00    2.60
  -4   2   4   15.10    1.80
  -4   2   4   14.60    1.80
   4  -2   4   11.70    1.90
  -4   2   4   13.50    1.60
   4   2   4   15.70    2.40
  -4  -2   4   14.40    2.00
  -4  -2   4   11.40    3.20
   4   2   4   15.60    1.80
  -4  -2   4   15.80    3.10
   4   2   4   13.60    1.50
  -4  -2   4   17.30    4.30
  -4  -2   4   15.10    2.00
   4   2   4   12.10    2.10
   4   2   4   17.10    1.80
   4   2   4   11.30    1.60
  -4  -2   4   14.60    3.50
   4   2   4   11.60    1.40
  -4   2  -4   16.20    3.10
  -4  -2   4   10.80    3.20
   4   2   4   14.20    2.20
   4   2   4   12.40    1.70
  -4  -2   4   12.30    3.90
  -4  -2   4   12.20    1.90
   4   2   4   18.00    2.20
  -4  -2   4   13.30    2.90
  -4  -2   4   16.70    2.40
  -4  -2   4    9.60    2.10
   4   2   4   13.50    1.50
  -4  -2   4    9.90    3.10
   4   2   4   13.40    1.50
  -4  -2   4   11.60    2.20
  -4  -2   4   16.40    2.80
  -4  -2   4   13.00    2.20
  -4  -2   4   17.80    3.50
  -4  -2   4   10.20    4.20
  -4  -2   4    4.00    8.00
  -4  -2   4   10.70    4.50
  -4  -2   4   18.40    3.30
  -4  -2   4   21.60    3.50
   4  -2  -4   11.90    1.80
   4   2   4   12.60    2.00
   4   2   4   12.90    1.80
   4   2   4   14.70    1.50
   4   2   4   10.90    1.50
  -4  -2   4    2.40    5.30
   4   2   4   10.10    2.60
  -4  -2   4   16.90    6.60
   4   2   4   13.30    1.70
   4   2   4   11.20    1.50
   4   2   4   13.50    1.40
   4   2   4   12.50    1.80
  -4  -2   4   14.30    5.50
  -4  -2   4   23.00    3.90
  -4  -2   4   14.90    2.30
  -4  -2   4   18.50    2.50
  -4  -2   4   20.20    5.00
   4   2   4   12.10    1.60
  -4  -2   4   14.70    3.80
  -4  -2   4   21.70    2.80
   4  -3   4   -1.00    0.90
  -4   3   4   -0.10    0.80
  -4   3   4    1.30    0.90
  -4   3   4    0.30    0.60
   4  -3   4    0.30    1.00
   4  -3   4    0.30    1.00
  -4   3   4   -1.20    1.80
  -4   3   4    0.40    0.80
  -4  -3  -4   -0.80    2.00
  -4   3   4    1.60    1.30
  -4   3   4    0.10    1.70
  -4   3   4    0.10    0.70
  -4   3   4   -0.10    0.80
   4  -3   4    0.10    1.20
  -4   3   4    0.60    0.80
  -4   3   4   -2.30    3.10
  -4   3   4   -1.40    1.70
   4  -3   4   -0.40    1.20
  -4   3   4    2.40    0.90
  -4   3   4    0.00    0.80
   4   3  -4   -0.10    0.70
  -4   3   4   -0.30    0.60
   4  -3   4   -1.10    1.50
   4  -3   4    0.90    0.90
  -4   3   4    0.50    0.80
  -4   3   4    0.60    1.50
   4  -3   4    0.60    1.40
   4  -3   4    0.70    1.50
   4  -3   4    4.40    1.50
  -4   3   4   -1.70    1.20
   4  -3   4   -0.10    1.10
  -4   3   4   -3.70    2.70
   4  -3   4    0.40    0.90
   4  -3   4   -0.70    0.90
   4  -3   4   -0.20    1.00
  -4   3   4    2.00    1.20
  -4   3   4   -0.60    0.50
   4  -3   4   -0.50    1.20
  -4   3   4    2.10    0.90
  -4   3   4    0.40    1.10
  -4   3   4    0.10    0.60
   4  -3   4    0.20    2.40
   4  -3   4   -0.40    1.40
   4  -3   4    3.50    1.90
   4  -3   4   -2.00    1.20
  -4   3   4    2.00    1.00
   4  -3   4    0.50    1.00
  -4   3   4    0.60    0.80
   4  -3   4    0.00    0.80
  -4   3   4    0.70    0.80
  -4  -3   4   -3.30    3.70
  -4  -3   4    1.70    2.40
   4   3   4    0.60    0.80
  -4  -3   4   -4.10    3.30
  -4  -3   4   -0.10    1.10
  -4  -3   4    1.50    1.80
  -4  -3   4    0.30    1.20
  -4  -3   4    1.40    1.20
   4   3   4    0.00    0.70
  -4  -3   4    1.40    1.20
  -4  -3   4    0.60    1.50
  -4  -3   4   -1.00    2.10
   4   3   4    2.60    0.90
   4   3   4   -0.30    0.50
  -4  -3   4    0.30    3.40
   4   3   4    1.30    0.80
  -4  -3   4   -0.40    5.00
  -4   3  -4    0.20    1.70
  -4  -3   4   -0.40    2.10
   4   3   4    0.60    0.70
   4   3   4    0.00    0.60
   4   3   4   -0.20    0.50
   4  -3  -4    0.70    0.90
  -4  -3   4   -0.10    1.70
   4   3   4    1.00    1.30
  -4  -3   4   -1.00    1.70
   4   3   4    0.00    1.10
  -4  -3   4    0.10    1.80
   4   3   4    2.20    1.10
   4   3   4    0.30    0.50
   4   3   4    0.00    0.70
   4   3   4    0.20    0.80
  -4  -3   4    0.20    1.00
  -4  -3   4   -1.30    3.20
   4   3   4   -0.30    0.70
   4   3   4    4.50    1.30
  -4  -3   4    1.70    2.90
   4   3   4   -1.40    1.40
  -4  -3   4   -0.90    2.80
   4   3   4    3.30    1.00
  -4  -3   4    0.60    1.80
  -4  -3   4    4.00    2.50
  -4  -3   4    0.20    1.00
   4   3   4    0.80    0.80
  -4  -3   4   -0.50    3.50
  -4  -3   4    0.70    1.20
  -4  -3   4    0.10    1.90
   4   3   4   -0.20    0.80
  -4  -3   4   -0.80    2.30
   4   3   4   -1.40    1.00
   4   3   4    3.80    1.50
  -4  -3   4   -0.40    1.10
   4   3   4    3.10    1.00
  -4  -3   4    0.40    2.00
  -4   4   4  173.68   10.10
  -4   4   4  160.18   10.00
  -4  -4  -4  164.48   12.90
  -4   4   4  173.98    9.70
  -4   4   4  178.88   13.50
   4  -4   4  196.98   11.80
   4  -4   4  159.38   10.80
   4  -4   4  153.78   10.90
  -4   4   4  164.68   11.30
   4  -4   4  183.48   14.80
  -4   4   4  168.88   10.00
   4  -4   4  165.08   10.50
  -4   4   4  162.78    9.60
  -4   4   4  181.58   10.70
  -4   4   4  180.28   13.40
   4  -4   4  173.88   10.00
   4  -4   4  166.78   12.70
  -4   4   4  157.68    9.50
  -4   4   4  168.18    9.60
   4  -4   4  151.98   10.60
   4   4  -4  164.58   10.20
  -4   4   4  164.98   10.00
   4  -4   4  168.08   11.10
  -4   4   4  171.28   10.30
  -4   4   4  162.98    9.80
   4  -4   4  166.28   10.70
  -4   4   4  164.78    9.80
   4  -4   4  164.98   10.80
   4  -4   4  161.08   10.30
   4  -4   4  165.58   10.60
  -4   4   4  171.48    9.70
  -4   4   4  168.18    9.60
  -4   4   4  157.68   10.10
  -4   4   4  162.68    9.50
   4  -4   4  179.58   11.70
   4  -4   4  150.98   10.90
  -4   4   4  175.68   10.50
   4  -4   4  157.58   10.50
  -4   4   4  165.98    9.80
  -4   4   4  159.38   10.20
  -4  -4   4  151.98   13.80
  -4  -4   4  159.58   12.80
   4   4   4  163.78   10.00
   4  -4  -4  148.29   10.00
  -4  -4   4  162.38   12.10
   4   4   4  172.48   10.00
  -4  -4   4  164.78   18.40
  -4  -4   4  178.38   10.20
   4   4   4  150.28   10.20
  -4  -4   4  164.68   13.10
   4   4   4  164.88    9.80
   4   4   4  173.98    9.40
   4  -4  -4  177.08   10.10
  -4  -4   4  168.28   10.80
  -4  -4   4  154.18   10.60
   4   4   4  166.88    9.70
  -4  -4   4  172.28   11.90
   4   4   4  166.88    9.90
   4   4   4  169.48    9.60
   4   4   4  169.38    9.60
  -4   4  -4  168.68   11.90
   4   4   4  164.58   10.00
   4  -4  -4  148.49    9.90
  -4  -4   4  165.08   13.50
   4   4   4  173.48    9.70
  -4  -4   4  167.98   12.30
   4   4   4  168.48    9.70
  -4  -4   4  167.28   10.40
  -4  -4   4  148.99   13.80
   4   4   4  169.88    9.60
  -4  -4   4  167.08   14.30
  -4  -4   4  171.98   11.50
   4   4   4  162.68    9.90
   4   4   4  158.68   10.20
  -4  -4   4  168.28   14.70
  -4  -4   4  163.08   11.70
  -4  -4   4  164.98   11.90
   4   4   4  174.18   10.40
  -4  -4   4  187.18   15.70
   4   4   4  181.88   10.90
  -4  -4   4  173.58   10.70
   4   4   4  152.38    9.90
  -4  -4   4  170.08   11.60
  -4  -4   4  170.78   11.20
  -4  -4   4  177.58   11.90
  -4   5   4   65.49    5.00
  -4  -5  -4   63.89    7.50
   4   5  -4   67.99    4.60
  -4   5   4   61.59    4.80
  -4   5   4   65.99    4.50
  -4   5   4   66.09    4.40
  -4   5   4   70.89    5.20
   4  -5   4   76.99    6.40
   4  -5   4   63.79    5.80
  -4   5   4   72.99    7.60
  -4  -5  -4   63.39   14.80
  -4   5   4   60.59    6.70
   4  -5   4   65.49    7.20
   4   5  -4   61.99    4.80
  -4   5   4   61.79    4.70
   4  -5   4   65.59    5.20
  -4   5   4   61.09    4.90
  -4   5   4   65.29    5.20
   4  -5   4   67.59    5.50
  -4   5   4   67.79    4.40
   4  -5   4   73.89    5.70
  -4   5   4   68.49    7.50
   4  -5   4   74.69    8.70
  -4   5   4   59.79    5.70
   4  -5   4   67.19    5.50
   4  -5   4   63.89    5.70
  -4   5   4   53.29    6.70
  -4   5   4   66.79    4.80
  -4   5   4   66.89    4.40
   4  -5   4   65.99    5.60
   4  -5   4   62.19    5.30
   4  -5   4   67.09    5.40
   4  -5   4   71.69    4.70
  -4   5   4   62.49    4.60
  -4   5   4   67.49    4.70
   4  -5   4   69.99    5.10
  -4   5   4   68.29    4.60
  -4   5   4   62.99    4.20
  -4   5   4   63.79    4.20
   4  -5   4   73.49    6.40
  -4   5   4   66.99    4.40
  -4  -5  -4   61.09    7.60
   4   5  -4   66.09    4.50
   4   5   4   60.49    5.10
  -4  -5   4   74.89    6.80
   4   5   4   56.89    5.90
  -4  -5   4   63.89    7.70
  -4  -5   4   66.49    7.10
  -4  -5   4   61.19    7.50
  -4  -5   4   65.99    8.30
   4   5   4   68.29    4.30
   4   5   4   69.29    4.10
   4   5   4   66.79    4.50
  -4  -5   4   68.79    5.50
  -4  -5   4   62.99    6.20
   4  -5  -4   70.79    4.90
  -4  -5   4   60.99   10.50
   4   5   4   73.09    4.60
   4   5   4   61.69    4.60
   4   5   4   63.49    4.90
   4   5   4   68.59    4.50
   4  -5  -4   62.59    4.80
  -4  -5   4   62.19    4.90
  -4  -5   4   68.89    6.80
  -4  -5   4   67.19    8.20
  -4  -5   4   67.29    7.50
   4   5   4   70.39    5.20
  -4  -5   4   57.09    7.00
   4   5   4   64.59    4.30
   4  -5  -4   64.79    5.00
  -4  -5   4   66.39    9.40
   4   5   4   64.29    4.60
  -4  -5   4   63.19    5.50
   4   5   4   69.69    4.30
  -4   5  -4   65.99    6.70
   4   5   4   67.59    4.30
  -4  -5   4   57.19    7.50
   4   5   4   67.89    4.50
   4   5   4   68.09    4.70
   4   5   4   67.69    4.40
  -4  -5   4   58.39    5.60
   4   5   4   63.69    4.60
  -4   6   4    3.80    2.30
   4   6  -4    5.10    1.20
  -4   6   4    3.80    1.70
   4   6  -4    4.40    1.10
  -4   6   4    3.30    1.10
   4  -6   4    3.90    2.00
  -4   6   4    3.20    1.30
  -4   6   4    3.50    0.90
  -4   6   4    3.40    1.10
   4   6  -4    6.30    1.20
  -4   6   4    4.80    1.20
   4  -6   4    7.70    1.90
   4  -6   4    3.40    1.70
  -4   6   4    4.80    2.50
   4  -6   4    3.40    3.00
  -4  -6  -4    2.00    2.60
  -4   6   4    2.80    0.80
  -4  -6  -4    1.00    4.30
   4  -6   4    4.40    1.50
   4  -6   4    4.50    1.80
   4  -6   4    3.80    1.40
   4  -6   4    3.10    2.20
   4  -6   4    3.50    1.30
  -4   6   4    6.40    1.40
  -4   6   4    4.80    1.40
  -4   6   4    3.80    1.10
   4  -6   4    5.60    1.50
  -4  -6  -4   -0.60    7.00
  -4  -6  -4    5.10    3.20
   4  -6   4    5.00    1.60
  -4   6   4    5.50    1.50
   4   6   4    4.30    1.60
  -4  -6   4    4.00    2.60
   4   6   4    2.60    1.00
  -4  -6   4    2.00    2.70
  -4  -6   4    3.10    2.60
   4   6   4    2.90    0.90
   4  -6  -4    3.10    1.20
   4   6   4    2.60    0.70
  -4  -6   4    2.10    3.70
   4   6   4    3.30    0.90
   4   6   4    4.90    1.40
  -4  -6   4    3.60    2.90
   4   6   4    3.50    0.90
  -4  -6   4    2.50    2.50
  -4  -6   4    2.10    4.40
  -4  -6   4    2.90    2.10
   4   6   4    3.40    0.80
  -4  -6   4    2.70    1.50
   4  -6  -4    3.20    1.00
   4   6   4    5.50    1.20
   4   6   4    4.20    1.20
  -4  -6   4    5.00    2.30
   4   6   4    4.60    1.20
  -4  -6   4    2.00    2.60
  -4   6  -4    3.20    2.30
   4  -6  -4    3.30    1.40
  -4  -6   4    2.50    1.60
  -4  -6   4    3.40    1.50
   4  -6  -4    4.70    1.50
   4  -7   4   95.89    6.10
  -4  -7  -4   78.19    9.10
  -4  -7  -4   75.99    6.20
   4  -7   4   93.39    7.30
  -4   7   4   86.69    5.30
   4   7  -4   90.99    5.30
   4   7  -4   91.59    5.40
   4  -7   4   93.49    6.20
  -4  -7  -4   95.89   13.00
  -4  -7  -4   81.39    6.40
  -4   7   4   81.59    5.40
   4  -7   4   84.79    5.60
  -4   7   4   77.79    6.80
  -4   7   4   85.29    5.80
   4  -7   4   95.99    5.90
  -4   7   4   73.19    7.10
   4  -7   4   95.49    5.80
  -4  -7  -4   82.59    7.50
  -4   7   4   88.19    5.20
  -4  -7  -4   77.29    7.20
  -4   7   4   78.69    5.60
   4   7  -4   91.69    5.30
   4  -7  -4  101.29    5.70
  -4  -7   4   86.79    7.30
   4   7   4   84.49    5.40
  -4  -7   4   90.19   10.00
   4  -7  -4  100.29    5.40
  -4   7  -4   86.19    6.00
  -4  -7   4   84.09    6.60
   4  -7  -4   99.99    5.50
  -4  -7   4   68.79    8.90
   4   7   4   83.19    5.10
   4   7   4   74.79    5.50
  -4  -7   4   84.59    5.80
   4  -7  -4   79.99    4.90
   4   7   4   85.89    5.20
  -4  -7   4   86.19    6.40
   4   7   4   85.49    5.40
   4  -7  -4  101.29    5.60
   4   7   4   85.99    5.50
   4  -7  -4   98.39    5.80
  -4   7  -4   91.49    6.00
   4   7   4   83.99    5.00
  -4  -7   4   74.59    6.90
   4   7   4   83.79    5.10
  -4   0   5    0.10    0.80
  -4   0   5   -0.10    1.30
   4   0   5    0.40    0.70
  -4   0   5   -2.50    2.50
   4   0   5    0.30    0.70
   4   0   5    0.40    0.90
  -4   0   5    0.80    1.20
   4   0   5    3.00    1.00
   4   0   5    3.10    1.00
   4   0   5    1.40    1.00
   4   0   5    0.10    0.90
  -4   0   5    0.40    0.90
  -4   0   5    1.50    1.90
  -4   0   5   -0.80    1.50
   4   0   5    1.80    0.90
  -4   0   5    5.30    1.20
   4   0   5    0.40    0.70
   4   0   5    0.20    0.70
  -4   0   5   -0.10    1.00
  -4   0   5    3.10    2.40
   4   0   5    0.70    0.90
  -4   0   5    0.70    2.00
   4   0   5    0.80    0.80
  -4   0   5   -0.30    1.90
  -4   0   5    0.40    1.30
  -4   0   5    0.20    0.80
  -4   0   5    0.20    2.00
  -4   0   5    0.20    0.80
   4   0   5   -0.30    1.00
  -4   0   5    0.60    2.90
  -4   0   5    0.70    0.90
   4   0   5    1.40    1.10
   4   0   5    0.40    0.90
   4   0   5    4.50    1.30
  -4   0   5   -0.20    1.90
   4   0   5    0.30    0.80
  -4   0   5    0.50    0.70
  -4   0   5    1.90    3.30
  -4   0   5   -0.10    1.60
   4   0   5    0.90    0.90
  -4   0   5    0.30    0.90
  -4   0   5    2.40    0.90
  -4   0   5    0.20    1.00
   4   0   5    0.50    0.80
   4   0   5    1.50    0.90
  -4   1   5   60.49    4.60
  -4   1   5   57.19    4.10
  -4   1   5   57.49    5.70
  -4   1   5   58.69    6.80
  -4   1   5   55.89    6.90
  -4   1   5   59.89    6.10
   4  -1   5   68.29    4.60
   4  -1   5   68.09    5.30
   4  -1   5   60.79    4.60
  -4   1   5   60.59    4.50
   4  -1   5   58.39    4.50
  -4   1   5   62.49    4.90
  -4   1   5   58.19    6.20
  -4   1   5   59.39    7.50
   4   1  -5   64.19    4.70
  -4   1   5   59.39    4.10
   4  -1   5   54.39    4.50
   4  -1   5   48.00    4.30
   4  -1   5   61.09    4.40
  -4   1   5   59.39    4.40
  -4   1   5   59.99    6.50
  -4   1   5   60.69    4.40
   4  -1   5   56.39    4.50
  -4   1   5   62.89    4.80
   4  -1   5   58.09    4.50
   4  -1   5   63.69    6.50
  -4   1   5   59.29    4.90
  -4   1   5   63.29    6.60
   4  -1   5   58.59    5.00
  -4   1   5   60.59    4.50
  -4   1   5   63.79    7.20
  -4   1   5   63.29    9.00
   4  -1   5   62.89    5.30
  -4   1   5   57.79    4.10
   4  -1   5   59.89    4.50
   4  -1   5   60.19    4.40
   4  -1   5   68.49    5.40
  -4   1   5   55.59    5.60
   4  -1   5   58.09    4.80
   4  -1   5   55.59    4.70
  -4   1   5   60.09    4.10
   4  -1   5   62.09    4.70
  -4   1   5   61.89    4.40
  -4   1   5   61.09    4.30
  -4  -1   5   59.79    6.00
   4   1   5   73.09    4.60
   4   1   5   69.99    4.60
  -4  -1   5   54.29    7.30
  -4  -1   5   63.09    4.60
   4   1   5   68.89    4.30
  -4  -1   5   61.39    5.30
   4   1   5   71.49    4.30
   4   1   5   64.09    4.40
   4   1   5   65.39    5.00
   4   1   5   65.89    4.60
   4   1   5   68.59    4.30
  -4  -1   5   54.59    6.50
  -4  -1   5   59.49    6.40
   4   1   5   79.79    5.30
   4   1   5   72.89    4.40
  -4  -1   5   61.89    4.70
   4   1   5   71.59    4.80
   4   1   5   68.59    4.30
  -4  -1   5   49.30    5.90
  -4  -1   5   56.59    6.00
  -4  -1   5   63.69    4.30
  -4  -1   5   61.49    4.60
  -4  -1   5   53.99    6.00
  -4   1  -5   59.59    5.90
  -4  -1   5   59.89    4.60
   4   1   5   68.59    4.80
  -4  -1   5   55.89    5.70
  -4  -1   5   65.09    7.70
  -4  -1   5   59.69    7.00
   4   1   5   60.89    4.40
   4  -1  -5   54.79    4.20
  -4  -1   5   63.19    6.90
  -4  -1   5   55.29   10.90
  -4  -1   5   59.29    4.20
  -4  -1   5   58.09    4.10
  -4  -1   5   59.29    4.80
   4   1   5   72.29    4.40
  -4  -1   5   58.99    5.00
  -4  -1   5   55.69    6.60
   4   1   5   74.59    4.60
   4   1   5   66.69    4.10
  -4  -1   5   57.69    5.90
  -4  -1   5   63.29    4.40
  -4  -1   5   51.09    7.80
  -4   2   5  125.09    7.40
  -4   2   5  124.89   10.30
   4   2  -5  127.49    8.00
  -4   2   5  112.39   11.20
   4  -2   5  119.29    8.30
   4  -2   5  135.69    9.30
   4  -2   5  122.79    8.60
  -4   2   5  128.69    7.90
  -4   2   5  102.89   10.10
  -4   2   5  127.89    8.40
   4  -2   5  124.79    8.10
   4  -2   5  102.09    8.00
  -4   2   5  126.29    7.40
  -4   2   5  138.09   11.30
  -4   2   5  126.19    7.70
  -4   2   5  127.79    7.90
   4  -2   5  137.19   12.00
   4  -2   5  138.29    8.90
  -4   2   5  127.29   10.60
   4  -2   5  121.39    8.20
  -4   2   5  123.29    8.20
  -4   2   5  122.99    7.70
   4  -2   5  105.79    8.10
  -4  -2  -5  141.19   10.50
  -4   2   5  118.59    9.20
  -4   2   5  128.39    7.80
  -4   2   5  125.29    7.40
  -4   2   5  133.69    8.30
   4  -2   5  128.09   10.30
  -4   2   5  123.19    7.90
   4  -2   5  104.69    8.00
   4  -2   5  126.99    7.70
  -4   2   5  129.19    8.20
  -4   2   5  123.19    7.40
  -4   2   5  120.19    9.20
   4  -2   5  124.39    8.20
  -4   2   5  124.49    7.30
  -4   2   5  122.69   10.70
   4  -2   5  123.49    8.10
  -4   2   5  121.49    7.30
  -4   2   5  129.99    7.70
   4  -2   5  103.89    8.00
   4  -2   5  123.79    9.10
   4  -2   5  110.39    8.20
   4  -2   5  127.49    8.10
  -4  -2   5  126.49   10.10
  -4  -2   5  124.69    8.40
  -4  -2   5  122.39   10.30
  -4   2  -5  134.89    9.70
   4   2   5  124.39    7.40
   4   2   5  124.79    8.00
   4   2   5  122.59    7.40
   4   2   5  125.39    8.50
  -4  -2   5  105.29   12.20
   4   2   5  125.59    7.50
  -4  -2   5  135.49    9.80
  -4  -2   5  134.89    8.20
  -4  -2   5  139.29    9.30
   4   2   5  127.29    7.70
  -4  -2   5  137.59   11.00
   4   2   5  123.99    8.30
  -4  -2   5  135.69   10.40
  -4  -2   5  124.69    9.90
   4   2   5  106.49    7.80
   4   2   5  120.39    7.60
  -4  -2   5  126.09    9.30
   4  -2  -5  123.69    7.70
   4   2   5  126.29    7.50
   4   2   5  107.79    8.50
   4   2   5  130.89    7.80
   4   2   5  126.79    7.60
  -4  -2   5  134.69    7.70
  -4  -2   5  129.59    8.20
  -4  -2   5  133.49    8.10
   4   2   5  129.39    7.30
   4   2   5  130.69    7.70
  -4  -2   5  116.09   10.50
  -4  -2   5  125.79    7.80
   4   2   5  117.49    8.10
  -4  -2   5  123.39    7.60
   4   2   5  120.09    8.10
  -4  -2   5  135.79    9.10
  -4  -2   5  103.89   12.20
  -4  -2   5  117.29    9.80
  -4  -2   5  134.49   12.00
   4   2   5  130.59    7.90
  -4  -2   5  124.09    9.80
   4   2   5  124.69    7.70
  -4  -2   5  118.99   13.80
  -4  -2   5  110.79    8.40
   4   2   5  122.59    7.50
   4   2   5  133.69    8.10
  -4  -2   5  126.29    8.10
   4  -3   5    2.40    1.60
   4  -3   5    3.10    1.90
  -4   3   5    2.00    2.80
   4  -3   5    6.20    1.70
  -4   3   5    7.10    1.30
  -4   3   5    5.80    3.30
  -4   3   5    6.30    1.50
  -4   3   5    6.00    1.20
  -4   3   5    5.40    1.50
  -4   3   5    5.90    1.50
  -4   3   5    4.90    1.10
   4  -3   5    7.70    2.10
  -4   3   5    7.30    3.10
  -4   3   5    5.70    1.50
   4  -3   5   11.90    3.20
  -4   3   5    4.90    2.00
  -4   3   5    6.50    1.50
  -4   3   5    5.60    1.20
  -4   3   5    7.10    2.20
  -4   3   5    6.20    1.40
   4  -3   5    3.40    2.00
   4  -3   5    7.70    1.80
  -4  -3  -5    7.50    3.20
  -4   3   5    8.70    1.30
   4   3  -5    9.80    1.90
   4  -3   5    2.10    1.40
  -4   3   5    5.80    1.50
   4  -3   5    6.90    1.40
  -4   3   5    6.50    1.60
   4  -3   5   10.10    3.90
   4  -3   5    4.70    1.90
  -4   3   5    7.50    1.50
   4  -3   5    8.90    2.10
   4  -3   5    6.10    1.90
  -4   3   5    8.00    1.60
   4  -3   5    4.70    1.90
   4  -3   5    7.50    2.70
  -4   3   5    4.90    1.30
  -4   3   5    5.00    1.10
  -4   3   5    5.40    1.70
   4  -3   5    8.60    2.00
  -4   3   5    1.80    2.90
   4  -3   5   10.50    2.30
  -4  -3   5   17.10    4.40
   4   3   5    6.50    1.40
   4   3   5    6.40    1.40
   4   3   5    8.00    1.60
   4   3   5    7.30    1.30
   4   3   5    8.20    1.80
  -4  -3   5   13.10    3.10
  -4  -3   5   11.90    2.50
  -4  -3   5   14.80    3.80
   4   3   5    4.90    1.60
   4   3   5    7.30    1.30
   4   3   5    6.10    1.10
  -4  -3   5    4.20    7.00
   4   3   5    6.00    1.20
   4   3   5    3.40    2.20
  -4  -3   5   13.30    2.90
   4   3   5    7.70    1.40
   4   3   5    6.40    1.30
  -4  -3   5    8.20    2.30
  -4  -3   5   10.60    5.70
  -4  -3   5    9.50    4.00
   4   3   5    5.40    1.30
   4   3   5    6.30    1.30
  -4  -3   5   12.10    4.90
   4   3   5    6.60    1.00
  -4  -3   5    3.50    4.40
  -4   3  -5    7.80    2.90
  -4  -3   5   10.90    3.30
   4   3   5    6.10    1.10
   4  -3  -5    6.60    1.60
   4   3   5    6.80    1.40
   4   3   5    8.90    2.00
  -4   4   5  433.16   24.20
   4  -4   5  447.86   24.70
  -4   4   5  413.06   23.50
   4  -4   5  388.76   24.40
  -4   4   5  424.56   23.70
   4  -4   5  372.06   24.00
  -4   4   5  436.46   23.20
  -4   4   5  423.46   23.90
  -4   4   5  423.16   23.10
   4  -4   5  422.36   24.70
   4  -4   5  489.95   25.50
   4  -4   5  418.46   24.30
  -4   4   5  447.46   23.20
  -4   4   5  407.36   23.10
   4  -4   5  444.86   26.80
  -4   4   5  424.16   23.20
   4  -4   5  478.55   28.90
  -4   4   5  443.76   28.00
  -4   4   5  432.86   23.30
  -4   4   5  399.56   25.10
   4   4  -5  397.86   23.70
  -4   4   5  452.05   27.90
  -4   4   5  432.96   23.60
  -4   4   5  425.46   23.40
  -4  -4  -5  383.96   26.30
  -4   4   5  427.06   23.40
   4  -4   5  451.45   24.50
  -4   4   5  440.66   23.90
   4  -4   5  436.96   24.40
   4  -4   5  432.86   24.20
   4  -4   5  433.86   23.50
  -4   4   5  434.26   23.20
   4  -4   5  393.56   24.00
  -4   4   5  417.36   23.60
  -4   4   5  419.26   23.90
  -4   4   5  418.26   23.40
   4  -4   5  424.86   23.90
   4   4   5  431.36   23.30
   4   4   5  433.96   23.70
  -4  -4   5  420.66   24.10
  -4  -4   5  424.06   25.10
   4   4   5  425.46   23.80
  -4  -4   5  433.36   24.00
  -4  -4   5  408.96   29.20
  -4  -4   5  446.76   25.00
   4   4   5  445.76   23.20
   4   4   5  408.46   23.40
  -4  -4   5  422.36   25.70
   4   4   5  429.86   23.30
   4   4   5  432.86   23.20
   4   4   5  419.46   24.80
   4   4   5  451.65   24.30
  -4  -4   5  409.56   26.20
  -4  -4   5  420.16   23.60
  -4  -4   5  408.86   26.70
   4   4   5  470.65   23.50
  -4  -4   5  406.86   25.20
   4   4   5  430.96   23.60
   4   4   5  418.36   23.30
  -4  -4   5  412.16   27.80
   4  -4  -5  446.96   23.70
  -4  -4   5  435.46   27.60
  -4  -4   5  440.06   25.60
  -4  -4   5  405.16   24.90
  -4  -4   5  449.26   34.80
  -4  -4   5  398.36   24.10
   4   4   5  412.76   23.90
  -4  -4   5  426.76   25.70
  -4  -4   5  428.46   28.90
  -4  -4   5  407.36   24.20
   4   4   5  435.76   23.60
   4   4   5  424.36   23.10
  -4  -4   5  431.26   25.50
  -4  -4   5  440.86   28.30
  -4   4  -5  418.06   25.70
   4   4   5  429.76   23.00
  -4  -4   5  432.36   27.30
   4   4   5  417.46   23.60
   4  -4  -5  382.66   23.40
  -4   5   5   54.59    3.90
   4  -5   5   54.59    4.90
  -4   5   5   50.39    3.60
  -4   5   5   52.49    4.20
   4  -5   5   58.59    4.40
  -4   5   5   45.20    4.90
  -4   5   5   55.09    3.70
  -4  -5  -5   44.10   11.70
   4  -5   5   57.59    5.00
  -4   5   5   49.10    4.60
   4  -5   5   59.19    4.70
   4   5  -5   53.19    3.80
   4  -5   5   58.09    4.90
  -4   5   5   57.89    4.10
   4  -5   5   60.19    5.10
  -4   5   5   53.19    3.80
   4  -5   5   60.79    4.90
  -4   5   5   52.79    4.30
   4  -5   5   56.89    4.00
  -4   5   5   51.79    4.30
  -4   5   5   50.59    4.20
   4   5  -5   57.09    4.00
   4  -5   5   61.99    5.00
   4  -5   5   58.39    4.60
  -4   5   5   54.49    4.50
  -4  -5  -5   47.90    6.90
  -4   5   5   55.39    4.10
  -4   5   5   56.79    6.80
  -4   5   5   54.09    4.00
   4  -5   5   69.19    8.50
  -4   5   5   53.89    3.90
  -4   5   5   53.49    3.70
  -4   5   5   52.49    6.80
  -4   5   5   53.69    4.10
   4  -5   5   57.39    6.40
   4  -5   5   58.99    5.20
  -4   5   5   59.69    3.80
  -4   5   5   48.20    3.60
  -4  -5   5   57.29    6.10
  -4  -5   5   46.30    5.90
  -4  -5   5   55.59    5.30
  -4  -5   5   55.29    5.30
  -4  -5   5   49.99    6.60
  -4  -5   5   55.99    5.80
   4   5   5   54.29    4.00
  -4  -5   5   57.59    5.10
   4   5   5   55.19    3.70
   4  -5  -5   61.59    4.30
   4   5   5   55.09    3.90
  -4  -5   5   52.49    4.70
   4   5   5   54.99    3.80
  -4  -5   5   48.20    6.40
   4   5   5   40.90    4.20
   4   5   5   53.89    4.00
   4  -5  -5   53.29    4.20
  -4  -5   5   45.70    7.90
  -4  -5   5   53.29    4.30
  -4   5  -5   68.29    6.50
  -4  -5   5   51.79    6.60
  -4  -5   5   55.09    4.70
  -4  -5   5   52.99    5.50
   4   5   5   56.19    4.70
   4   5   5   55.19    4.00
  -4  -5   5   55.79   10.00
   4   5   5   53.29    3.70
   4  -5  -5   52.29    4.20
  -4  -5   5   61.19    6.20
  -4  -5   5   52.79    4.70
   4   5   5   55.99    3.70
   4   5   5   56.09    3.70
  -4  -5   5   48.60    6.90
   4   5   5   57.19    3.90
  -4  -5   5   65.89    8.10
  -4  -5   5   51.39    6.70
   4   5   5   51.49    3.90
   4   5   5   55.29    4.00
  -4  -5   5   51.99    6.80
   4   5   5   55.99    3.50
   4  -6   5   14.60    2.10
  -4   6   5   13.20    1.70
   4   6  -5   13.00    1.70
  -4   6   5   12.30    1.50
  -4   6   5   18.00    1.60
  -4   6   5   13.40    3.30
   4  -6   5   15.10    2.00
  -4  -6  -5   14.60    3.70
  -4  -6  -5   15.50    5.20
  -4  -6  -5   13.60    7.90
   4  -6   5   15.90    2.60
  -4   6   5   16.00    2.10
   4  -6   5   13.80    2.10
  -4   6   5   14.30    1.50
  -4   6   5   14.60    1.90
   4   6  -5   14.00    1.70
   4   6  -5   14.20    1.70
  -4   6   5   13.60    2.00
  -4   6   5   15.40    1.70
   4  -6   5   17.80    2.50
   4  -6   5   16.00    3.80
  -4   6   5   12.10    1.60
   4  -6   5   15.50    2.40
   4  -6   5   17.70    3.50
  -4   6   5   13.30    1.70
   4  -6   5   11.40    1.90
  -4   6   5   13.00    1.80
   4  -6   5   13.70    1.70
  -4   6   5   14.20    1.70
  -4   6   5   16.10    3.50
   4   6   5   12.90    1.50
  -4  -6   5   13.90    5.00
  -4  -6   5   17.40    3.70
   4   6   5   17.80    1.70
  -4  -6   5   14.50    3.10
  -4  -6   5   13.90    2.30
   4   6   5   14.60    1.70
   4   6   5   15.30    2.00
   4  -6  -5   16.50    2.10
  -4  -6   5   15.70    2.70
   4   6   5   14.90    1.50
   4   6   5   14.60    1.50
   4  -6  -5   15.80    2.10
  -4  -6   5   14.90    2.00
   4   6   5   15.50    1.50
   4   6   5   13.60    1.60
  -4  -6   5   11.20    3.20
   4   6   5   16.10    1.50
  -4  -6   5   14.00    3.30
  -4  -6   5   12.50    2.20
   4   6   5   14.70    1.40
  -4   6  -5   15.40    2.40
   4   6   5   17.20    1.90
  -4  -6   5   16.00    3.70
   4   7   5   61.99    4.30
   4   0   6  982.30   55.49
  -4   0   6 1057.09   58.69
   4   0   6 1030.90   55.69
  -4   0   6  947.01   59.39
  -4   0   6 1054.09   57.59
  -4   0   6 1089.09   60.39
  -4   0   6 1046.30   55.29
  -4   0   6  946.11   57.69
  -4   0   6 1065.79   55.79
  -4   0   6 1078.79   55.39
   4   0   6 1083.69   55.79
  -4   0   6 1022.90   58.69
   4   0   6  919.81   55.79
  -4   0   6 1063.29   55.69
  -4   0   6 1064.29   55.79
   4   0   6 1023.80   55.69
  -4   0   6 1009.60   55.99
  -4   0   6 1084.19   57.99
  -4   0   6 1082.59   56.29
   4   0   6 1044.60   56.09
   4   0   6 1052.69   55.69
  -4   0   6 1079.19   56.69
   4   0   6 1071.49   55.49
   4   0   6 1092.49   55.59
  -4   0   6 1103.19   55.49
   4   0   6 1060.19   55.59
  -4   0   6 1071.49   59.19
   4   0   6 1063.19   55.89
   4   0   6  921.11   56.09
   4   0   6 1046.20   55.89
   4   0   6 1018.00   55.69
   4   0   6 1056.69   55.59
  -4   0   6 1013.50   58.49
  -4   0   6 1005.50   55.29
  -4   0   6 1040.50   55.99
  -4   1   6    0.70    2.30
  -4  -1  -6    0.50    2.30
   4  -1   6    0.40    1.10
  -4   1   6    1.10    1.00
   4   1  -6    0.70    0.90
  -4   1   6    1.10    1.10
   4  -1   6    1.00    1.10
  -4   1   6    0.10    3.40
  -4   1   6    0.40    1.90
  -4   1   6    0.40    2.00
   4  -1   6    1.90    1.00
  -4   1   6    0.70    1.00
  -4   1   6    0.00    2.20
  -4   1   6    0.70    0.90
  -4   1   6    3.30    1.00
  -4   1   6    0.50    0.80
   4  -1   6    0.90    0.90
  -4   1   6    0.30    1.30
  -4   1   6    0.40    2.90
  -4   1   6    0.70    1.00
   4  -1   6    0.50    1.00
   4  -1   6    0.60    0.90
   4  -1   6    5.70    1.40
   4  -1   6    2.30    1.20
   4  -1   6    0.20    0.70
   4  -1   6    2.10    1.40
   4  -1   6    1.00    1.00
   4  -1   6   -1.00    1.00
  -4   1   6    0.10    1.00
  -4   1   6    0.10    1.00
  -4   1   6   -3.70    3.00
  -4   1   6    0.60    1.00
   4  -1   6    0.20    1.10
  -4   1   6    0.30    1.30
  -4   1   6    2.30    1.10
  -4   1   6    0.70    0.80
   4   1   6    0.60    0.70
   4   1   6    3.40    1.10
  -4  -1   6    1.40    1.20
  -4  -1   6    1.60    1.60
   4   1   6    1.40    0.90
   4   1   6    0.40    1.00
  -4  -1   6    0.90    1.00
   4   1   6    0.60    0.80
   4   1   6    0.60    1.10
   4   1   6    2.20    1.20
  -4  -1   6    0.80    2.00
  -4  -1   6    2.40    2.50
  -4  -1   6    3.10    2.40
  -4  -1   6    6.80    1.90
   4   1   6    0.40    0.70
  -4  -1   6    4.80    3.40
   4   1   6    3.00    1.00
  -4  -1   6    1.10    1.80
   4   1   6    1.90    1.20
  -4  -1   6    0.90    2.40
   4   1   6    1.30    1.00
  -4  -1   6    0.20    2.40
   4   1   6    0.30    0.80
   4   1   6    0.80    0.80
  -4  -1   6    2.60    1.30
  -4  -1   6   -0.70    3.40
  -4  -1   6    1.10    1.00
  -4  -1   6    0.20    2.00
  -4  -1   6    0.60    3.00
  -4  -1   6    0.70    1.00
  -4  -1   6    1.20    1.10
  -4  -1   6    0.70    0.90
   4   1   6    3.50    1.00
   4   1   6    2.80    1.00
  -4  -1   6    1.80    1.60
   4   1   6    0.40    1.20
  -4  -1   6    0.50    2.00
  -4   2   6    0.70    0.80
  -4   2   6    0.40    1.00
   4  -2   6    0.40    0.90
  -4   2   6    0.20    0.80
   4  -2   6    0.30    1.20
   4  -2   6    0.40    1.00
  -4   2   6    0.30    1.00
  -4   2   6    4.90    3.20
  -4   2   6    0.20    0.80
  -4   2   6   -0.50    0.90
  -4   2   6    1.50    0.80
   4  -2   6    2.50    1.50
   4  -2   6    0.60    1.20
  -4   2   6   -0.20    0.80
   4  -2   6   -0.10    1.20
  -4   2   6    0.30    1.20
  -4   2   6   -0.10    1.00
  -4   2   6    0.30    0.80
  -4   2   6   -0.30    1.90
   4  -2   6    0.00    0.80
  -4   2   6    0.80    1.00
   4   2  -6    0.10    0.80
   4  -2   6    1.90    1.30
   4  -2   6    0.00    1.10
   4  -2   6    0.10    1.60
  -4   2   6   -0.20    3.10
  -4   2   6    0.90    1.60
   4  -2   6    0.20    1.30
  -4   2   6    0.80    1.00
  -4  -2  -6    6.60    3.00
   4  -2   6    2.00    1.20
  -4   2   6    0.40    0.90
  -4   2   6   -0.20    2.70
   4  -2   6    1.50    1.30
  -4   2   6    1.60    1.10
   4  -2   6    0.60    1.00
  -4   2   6    1.20    2.70
  -4  -2   6    0.40    2.00
   4   2   6    0.90    1.10
  -4  -2   6   -0.80    1.10
   4   2   6    1.00    0.80
   4   2   6    1.20    0.70
   4   2   6    1.80    0.90
   4   2   6    0.50    0.70
  -4  -2   6   -1.10    4.20
   4   2   6    1.90    1.00
  -4  -2   6    0.60    2.40
  -4  -2   6    0.90    1.20
   4  -2  -6    0.20    0.90
  -4  -2   6    0.10    1.40
  -4  -2   6    1.00    2.70
  -4  -2   6    0.00    2.80
  -4  -2   6   -0.50    0.90
   4   2   6   -0.50    1.00
  -4  -2   6    2.80    2.70
  -4  -2   6    4.90    3.00
  -4   2  -6   -2.50    1.90
  -4  -2   6   -0.30    1.10
  -4  -2   6    0.50    1.30
  -4  -2   6    0.00    1.10
   4   2   6    4.90    1.40
   4   2   6    1.30    0.90
   4   2   6   -0.50    1.20
  -4  -2   6    0.80    2.20
  -4  -2   6   -0.60    0.90
   4   2   6    0.10    1.20
  -4  -2   6    2.20    2.10
  -4  -2   6    6.20    2.90
  -4  -2   6   -0.20    2.10
  -4  -2   6   -0.80    1.00
   4   2   6    0.00    0.70
  -4  -2   6   -0.80    3.80
   4   2   6    1.70    0.80
   4   2   6    1.70    0.80
   4   2   6    0.80    0.70
  -4  -2   6   -1.80    4.90
   4   2   6    2.70    1.00
   4   2   6    0.40    0.60
  -4   3   6  112.69    7.10
   4   3  -6  104.99    7.30
   4  -3   6  101.49    7.70
   4  -3   6  115.19    9.70
   4  -3   6  101.09    7.70
   4  -3   6  130.09   11.70
  -4   3   6  109.09    7.60
  -4   3   6  105.49    7.00
  -4   3   6  103.99    8.70
  -4   3   6  111.19    7.80
   4  -3   6  108.09    7.40
  -4   3   6  114.49    7.20
  -4   3   6  110.49    7.10
  -4   3   6  106.79    6.80
  -4   3   6  110.49    7.10
   4  -3   6  107.09    7.60
   4  -3   6  117.69    8.00
   4  -3   6  119.99    8.30
  -4   3   6  110.89   10.50
  -4   3   6  120.39    7.40
   4  -3   6  108.99    7.10
   4  -3   6  109.99    8.00
  -4   3   6  112.59    6.80
  -4   3   6  109.89    7.10
  -4   3   6  106.49    6.70
   4  -3   6  122.79    8.80
  -4   3   6  106.79    7.30
  -4   3   6  110.49    7.40
  -4   3   6  109.79    7.60
  -4   3   6  111.09    6.80
  -4   3   6  106.59   10.60
  -4   3   6  115.19    6.90
   4  -3   6  115.59    8.30
  -4  -3   6  136.59   11.10
  -4  -3   6  130.59    9.60
   4   3   6  111.59    7.70
  -4  -3   6  134.59    9.50
  -4  -3   6  130.59    8.80
  -4  -3   6  117.29    7.80
  -4  -3   6  133.69    9.40
   4   3   6  113.69    7.10
  -4  -3   6  127.79   12.70
   4   3   6  116.79    7.30
  -4  -3   6  111.89    7.30
  -4  -3   6  135.29   10.10
   4   3   6  112.99    6.70
  -4  -3   6  134.19    8.00
  -4  -3   6  102.29   11.40
  -4  -3   6  122.89   10.00
  -4  -3   6  124.59    8.80
   4   3   6  112.89    6.80
  -4  -3   6  103.59   11.30
  -4  -3   6   82.39   11.80
   4   3   6  117.29    7.10
   4   3   6  114.29    7.50
   4   3   6  108.89    6.80
   4   3   6  116.49    7.40
  -4  -3   6  116.39    8.70
  -4   3  -6  104.69    9.00
   4   3   6  111.99    7.30
  -4  -3   6  135.29    9.90
  -4  -3   6  110.69    7.60
  -4  -3   6  125.39    7.80
  -4  -3   6  128.79    7.40
   4   3   6  109.79    6.90
   4  -3  -6  111.69    7.20
   4   3   6  112.79    6.90
   4   3   6  111.99    7.00
  -4  -3   6  112.89   11.60
   4  -4   6  229.28   13.60
  -4   4   6  191.48   16.20
   4  -4   6  223.58   13.60
   4  -4   6  254.57   16.10
   4  -4   6  215.78   14.00
  -4   4   6  229.28   13.00
  -4   4   6  243.28   12.80
   4  -4   6  228.98   13.00
  -4   4   6  197.48   14.50
   4  -4   6  206.28   13.80
   4  -4   6  200.88   13.40
  -4   4   6  245.18   13.20
  -4   4   6  218.18   12.90
  -4   4   6  222.38   12.70
   4  -4   6  226.18   13.40
  -4   4   6  232.58   12.80
   4  -4   6  248.98   14.20
  -4   4   6  217.98   13.20
  -4   4   6  222.18   17.20
  -4   4   6  231.98   13.50
   4  -4   6  240.98   14.10
  -4   4   6  225.68   13.60
   4  -4   6  270.57   17.90
  -4   4   6  242.88   13.10
   4  -4   6  248.28   14.40
  -4   4   6  219.28   13.40
  -4   4   6  225.38   12.70
  -4   4   6  227.58   13.40
  -4   4   6  219.18   13.00
  -4   4   6  226.28   12.70
   4   4   6  221.98   12.90
  -4  -4   6  220.38   16.50
  -4  -4   6  214.58   15.70
   4   4   6  236.78   12.80
   4   4   6  226.68   12.50
  -4  -4   6  236.48   15.10
   4   4   6  240.08   13.10
   4   4   6  226.58   13.00
  -4  -4   6  240.78   17.20
  -4  -4   6  250.87   15.20
  -4  -4   6  235.38   14.40
   4   4   6  228.68   13.10
  -4  -4   6  227.18   13.10
  -4  -4   6  201.68   13.40
  -4  -4   6  217.68   14.30
   4   4   6  249.28   13.50
  -4  -4   6  211.48   16.40
  -4  -4   6  232.28   14.90
   4   4   6  216.58   13.90
   4  -4  -6  238.68   13.20
   4   4   6  230.68   12.90
  -4   4  -6  215.78   15.00
  -4  -4   6  230.98   13.60
  -4  -4   6  215.08   17.50
   4   4   6  225.68   13.20
   4   4   6  224.28   12.70
  -4  -4   6  238.38   16.20
   4   4   6  228.08   12.90
  -4  -4   6  238.18   15.10
   4   4   6  234.98   12.70
  -4  -4   6  205.48   14.40
  -4  -4   6  213.48   13.60
  -4  -4   6  248.68   17.60
   4   4   6  222.68   13.10
  -4  -4   6  229.88   18.10
  -4  -4   6  227.28   14.50
  -4  -4   6  223.58   13.60
   4   4   6  227.88   12.70
  -4  -4   6  226.78   22.40
  -4  -5  -6   -0.60    2.50
   4  -5   6    0.70    1.70
  -4   5   6    0.50    0.90
   4  -5   6   -0.40    1.30
  -4   5   6    0.80    0.80
  -4   5   6    0.00    0.60
   4  -5   6    0.00    0.80
  -4   5   6    1.30    1.00
  -4   5   6    0.90    1.00
   4  -5   6    1.90    1.30
  -4   5   6    0.00    1.00
   4  -5   6    0.60    0.90
  -4   5   6    0.40    0.80
  -4   5   6    0.30    0.80
  -4   5   6    0.10    0.60
   4   5  -6    0.60    0.70
  -4   5   6    0.30    0.50
  -4   5   6    0.70    0.90
  -4   5   6    0.40    0.80
  -4   5   6    0.80    1.80
   4   5  -6    0.90    0.80
   4  -5   6    1.10    2.30
   4  -5   6   -0.20    1.00
  -4   5   6    0.70    0.70
   4  -5   6    0.00    1.20
   4  -5   6    1.30    1.30
  -4   5   6    0.50    0.70
   4  -5   6    0.30    0.80
   4  -5   6   -1.50    1.10
  -4   5   6    0.00    0.90
  -4   5   6    1.90    1.90
   4   5  -6   -0.20    0.70
  -4  -5   6   -1.30    3.80
   4   5   6    0.20    0.60
   4   5   6    0.20    0.60
  -4  -5   6    1.60    2.60
   4   5   6    0.60    1.10
  -4  -5   6   -0.80    1.20
  -4  -5   6    0.30    2.00
  -4  -5   6   -0.60    1.00
   4   5   6    0.30    0.50
  -4  -5   6    0.00    1.80
  -4  -5   6   -0.80    1.80
  -4  -5   6    1.90    2.80
   4   5   6    0.80    0.90
   4   5   6    0.20    0.80
   4   5   6    0.70    0.60
  -4  -5   6    0.50    2.10
   4   5   6    1.60    0.80
  -4  -5   6    1.00    1.30
  -4  -5   6   -0.30    1.40
  -4  -5   6    0.50    1.80
  -4  -5   6   -0.20    2.20
   4   5   6    0.30    0.50
   4   5   6   -0.60    0.60
  -4  -5   6   -0.90    2.40
  -4  -5   6    0.40    1.70
  -4  -5   6    0.40    2.50
   4  -6   6   44.10    3.50
   4  -6   6   45.20    4.50
  -4   6   6   35.50    2.90
  -4   6   6   41.50    2.70
   4  -6   6   40.30    3.00
  -4  -6  -6   33.30    4.50
  -4   6   6   39.10    2.80
   4  -6   6   44.90    3.50
  -4   6   6   35.70    3.00
  -4   6   6   33.70    2.80
   4  -6   6   39.50    3.20
   4   6  -6   39.70    2.70
   4   6  -6   39.10    2.80
  -4   6   6   32.20    4.30
  -4   6   6   41.40    2.70
   4  -6   6   39.80    3.00
  -4   6   6   37.50    3.00
  -4   6   6   38.70    2.80
   4   6   6   36.70    2.70
   4   6   6   36.60    2.50
   4   6   6   40.20    2.60
   4   6   6   41.10    2.80
   4   6   6   39.40    2.70
   4  -6  -6   48.70    3.10
  -4  -6   6   34.70    3.80
  -4  -6   6   35.10    3.10
  -4  -6   6   39.60    4.30
   4   6   6   40.90    2.60
  -4   6  -6   38.50    3.40
  -4  -6   6   43.50    4.50
  -4  -6   6   36.90    5.80
   4   6   6   40.30    3.10
  -4  -6   6   45.70    3.90
  -4  -6   6   43.10    4.30
   4   0   7    0.60    0.70
   4   0   7   -0.90    0.70
   4   0   7    0.10    1.10
  -4   0   7    1.90    3.20
  -4   0   7   -0.80    4.00
  -4   0   7   -3.90    2.50
   4   0   7    1.50    1.20
   4   0   7   -0.40    0.90
   4   0   7   -0.40    0.90
  -4   0   7    0.90    0.80
  -4   0   7    1.70    2.10
  -4   0   7    1.00    0.90
  -4   0   7    0.60    2.30
  -4   0   7    1.70    2.80
   4   0   7   -0.20    1.00
   4   0   7    1.50    1.10
   4   0   7    1.00    0.90
  -4   0   7    1.30    1.00
  -4   0   7   -0.10    2.50
   4   0   7   -0.50    0.80
  -4   0   7   -0.20    1.10
  -4   0   7    8.00    2.90
  -4   0   7    0.90    0.90
  -4   0   7    2.40    1.50
  -4   1   7   46.90    3.80
  -4   1   7   45.00    3.40
  -4   1   7   49.40    3.80
  -4   1   7   46.30    3.60
  -4   1   7   51.29    4.70
  -4  -1  -7   44.00    6.00
  -4   1   7   47.40    6.50
   4  -1   7   57.99    4.20
  -4   1   7   51.49    3.60
   4  -1   7   50.39    4.20
   4  -1   7   55.49    4.10
  -4   1   7   53.29    4.00
   4   1  -7   46.10    3.90
   4  -1   7   41.90    4.20
   4  -1   7   47.40    3.60
  -4   1   7   45.90    3.90
  -4   1   7   51.09    3.90
  -4   1   7   50.29    4.50
  -4   1   7   50.39    4.20
   4  -1   7   49.80    4.20
  -4   1   7   52.19    6.80
  -4   1   7   48.10    8.00
  -4   1   7   42.70    5.20
  -4   1   7   48.00    6.50
  -4   1   7   49.50    3.70
   4  -1   7   51.09    4.00
   4  -1   7   50.19    3.90
   4   1   7   51.99    3.80
  -4  -1   7   48.40    4.10
   4   1   7   52.19    3.90
  -4  -1   7   52.39    5.70
  -4  -1   7   49.99    3.70
  -4  -1   7   50.39    5.80
  -4  -1   7   56.89    8.00
  -4  -1   7   47.20    6.40
  -4  -1   7   41.60    4.10
   4   1   7   48.70    3.70
  -4  -1   7   53.09    6.60
   4   1   7   37.30    3.60
   4   1   7   39.50    3.90
   4   1   7   49.50    3.60
  -4  -1   7   48.50    4.70
   4   1   7   50.29    3.70
  -4  -1   7   43.00    5.30
  -4  -1   7   46.00    6.10
   4   1   7   52.19    3.80
  -4  -1   7   46.60    4.00
   4   1   7   55.49    4.20
  -4  -1   7   49.40    3.80
  -4  -1   7   50.19    6.90
   4   1   7   53.59    3.90
   4   1   7   42.20    4.20
   4   1   7   44.70    4.00
   4   1   7   47.10    3.80
  -4  -1   7   47.90    6.90
  -4  -1   7   48.60    4.00
  -4  -1   7   46.80    3.60
  -4  -1   7   41.00    7.10
   4   1   7   49.30    3.50
  -4  -1   7   46.60    4.20
  -4   2   7    1.50    0.90
  -4   2   7    1.10    1.90
   4  -2   7    0.40    1.30
  -4   2   7    0.20    1.20
  -4   2   7    0.10    1.00
   4  -2   7    0.90    1.30
  -4   2   7    1.30    2.40
  -4   2   7    0.40    1.00
  -4   2   7    3.20    1.20
  -4   2   7    1.00    0.90
   4  -2   7   -1.30    1.30
  -4   2   7    1.90    0.90
   4  -2   7    0.90    0.90
   4  -2   7    0.50    1.10
  -4   2   7   -0.20    2.70
   4  -2   7    1.20    1.10
  -4   2   7    0.50    0.80
   4  -2   7    0.70    1.10
  -4   2   7    4.90    1.00
  -4   2   7    1.00    0.90
   4   2  -7    0.80    0.90
  -4   2   7   -0.20    1.70
   4   2   7    5.60    1.20
  -4  -2   7    5.20    2.40
   4   2   7    0.80    1.00
  -4  -2   7   11.20    3.20
  -4  -2   7    1.00    1.40
  -4  -2   7    0.20    2.00
  -4  -2   7    0.30    1.10
  -4  -2   7   -3.20    3.00
   4   2   7   -0.60    1.10
   4   2   7    0.90    0.80
  -4  -2   7    2.80    1.30
  -4  -2   7   10.40    3.30
  -4  -2   7    0.00    2.20
  -4  -2   7    1.40    1.50
   4   2   7    1.70    1.10
  -4  -2   7    1.70    2.50
  -4  -2   7   -0.10    2.90
  -4  -2   7   -0.10    2.10
  -4  -2   7    0.30    1.00
  -4  -2   7   -2.20    2.80
  -4  -2   7   -4.70    5.00
  -4  -2   7    0.70    1.30
  -4  -2   7    1.50    1.10
   4   2   7    4.80    1.10
   4   2   7   -0.10    0.90
   4   2   7    0.30    1.00
  -4  -2   7    1.30    1.00
   4   2   7    1.20    1.00
   4   2   7    0.60    0.60
  -4   3   7   60.99    5.00
  -4   3   7   62.99    4.70
  -4   3   7   64.09    4.60
  -4   3   7   47.20    7.40
  -4   3   7   68.99    4.50
   4  -3   7   69.09    4.60
  -4   3   7   70.99    4.80
   4  -3   7   82.29    7.50
  -4   3   7   70.19    4.80
  -4   3   7   70.69    4.40
  -4   3   7   67.59    4.30
  -4   3   7   64.49    7.60
   4  -3   7   60.99    5.40
   4  -3   7   69.29    5.10
  -4   3   7   69.49    4.80
  -4   3   7   70.39    4.40
  -4   3   7   68.89    5.30
  -4   3   7   65.79    4.40
   4  -3   7   76.69    5.90
  -4   3   7   68.09    4.70
   4  -3   7   60.99    5.20
   4  -3   7   66.99    4.90
  -4  -3   7   77.89    7.10
   4   3   7   72.79    4.50
  -4  -3   7   48.80    8.30
  -4  -3   7   68.19    5.20
   4   3   7   74.69    4.50
  -4  -3   7   63.99    5.00
  -4  -3   7   70.29    5.90
  -4  -3   7   68.39    8.30
  -4  -3   7   79.59    7.20
  -4  -3   7   70.49    7.50
  -4  -3   7   74.39    4.90
  -4  -3   7   60.49    5.00
  -4  -3   7   69.09    6.40
  -4  -3   7   78.09    7.10
   4   3   7   71.89    4.50
   4   3   7   75.39    4.40
  -4  -3   7   66.09    5.70
   4   3   7   69.09    4.40
  -4  -3   7   62.69    4.60
   4   3   7   71.09    4.80
  -4  -3   7   73.09    6.70
   4   3   7   75.69    4.80
   4   3   7   66.39    5.00
   4   3   7   76.39    5.00
  -4  -3   7   67.39    6.00
  -4  -3   7   68.79    5.20
   4   4  -7   42.00    3.10
  -4   4   7   48.90    3.50
  -4   4   7   47.90    3.10
   4  -4   7   49.40    3.80
   4  -4   7   51.59    4.70
   4  -4   7   57.19    5.70
  -4   4   7   33.10    5.30
  -4   4   7   49.10    3.50
  -4   4   7   49.40    3.10
  -4   4   7   46.40    3.60
   4  -4   7   48.50    3.70
  -4   4   7   46.30    3.10
  -4   4   7   43.40    3.30
  -4   4   7   30.80    5.40
  -4   4   7   44.20    3.30
   4  -4   7   34.40    3.90
  -4   4   7   44.60    3.10
  -4   4   7   44.40    3.30
  -4   4   7   45.20    3.40
   4  -4   7   42.70    3.60
   4  -4   7   53.09    4.30
   4  -4   7   49.90    3.30
   4  -4   7   49.20    3.60
  -4   4   7   44.20    3.80
  -4  -4   7   49.80    5.30
  -4  -4   7   43.30    3.50
   4   4   7   46.90    3.10
  -4  -4   7   40.00    3.70
  -4  -4   7   39.40    6.10
   4   4   7   50.09    3.10
  -4  -4   7   48.30    4.50
  -4  -4   7   41.60    3.90
   4   4   7   47.30    3.10
  -4  -4   7   48.40    4.80
  -4  -4   7   41.90    6.20
  -4  -4   7   45.40    3.80
  -4  -4   7   46.90    4.50
  -4  -4   7   41.20    5.60
   4   4   7   48.70    3.50
   4   4   7   49.20    3.10
  -4  -4   7   46.20    5.80
  -4  -4   7   45.70    6.50
  -4  -4   7   35.80    8.40
  -4  -4   7   44.90    4.90
   4   4   7   48.70    3.70
  -4  -4   7   45.00    4.20
   4   4   7   45.30    3.10
  -4   5   7   73.19    5.20
  -4   5   7   89.39    5.20
   4  -5   7   89.49    5.40
   4  -5   7   83.29    5.70
   4  -5   7  105.19    7.60
  -4   5   7   87.59    5.40
  -4   5   7   89.79    5.10
  -4   5   7   85.49    5.40
  -4   5   7   80.09    5.60
  -4   5   7   81.89    5.20
   4   5   7   88.79    5.10
  -4  -5   7   88.59    6.80
   4   5   7   91.49    5.00
   4   5   7   76.99    5.10
  -4  -5   7   99.79    6.10
  -4  -5   7   88.79    5.70
   4   5   7   79.79    5.00
   4   5   7   77.89    5.20
  -4  -5   7   94.79    7.40
  -4  -5   7   79.39    7.80
  -4   0   8    5.10    1.30
  -4   0   8    4.00    1.70
   4   0   8    4.00    1.20
  -4   0   8    4.40    1.10
  -4   0   8    4.40    1.00
  -4   0   8    3.10    2.40
  -4   0   8   -5.00    3.60
  -4   0   8    4.50    1.30
  -4   0   8    5.30    1.60
  -4   0   8    3.10    2.60
  -4   0   8    3.70    1.20
  -4   0   8    3.00    2.60
   4   0   8    4.00    0.90
  -4   0   8    4.70    2.70
  -4   0   8    2.90    1.10
   4   0   8    4.80    1.30
  -4   1   8   28.90    2.60
  -4   1   8   27.50    2.60
  -4   1   8   28.90    2.60
   4  -1   8   30.50    2.60
  -4   1   8   30.60    2.40
  -4   1   8   26.80    4.70
  -4   1   8   32.10    2.60
  -4   1   8   24.20    3.40
   4  -1   8   28.60    2.30
  -4   1   8   27.20    3.00
   4  -1   8   31.80    2.80
  -4   1   8   27.90    4.90
  -4   1   8   27.90    2.30
  -4   1   8   33.60    2.90
  -4  -1   8   26.40    2.50
  -4  -1   8   22.50    3.70
  -4  -1   8   27.00    2.40
  -4  -1   8   19.60    4.10
  -4  -1   8   23.30    4.50
  -4  -1   8   26.00    2.60
  -4  -1   8   29.30    3.20
  -4  -1   8   27.80    2.60
   4   1   8   24.20    2.40
  -4  -1   8   25.30    4.50
  -4  -1   8   32.50    3.40
  -4  -1   8   20.80    4.90
  -4  -1   8   30.80    4.50
  -4  -1   8   25.90    2.60
   4   1   8   31.30    2.50
  -4   2   8   59.09    3.80
  -4   2   8   56.09    6.60
  -4   2   8   60.69    4.30
  -4   2   8   56.79    4.10
  -4   2   8   43.10    6.30
   4  -2   8   65.79    4.30
  -4   2   8   53.59    4.50
  -4   2   8   58.99    3.80
  -4   2   8   60.79    4.10
  -4   2   8   56.89    4.10
  -4   2   8   59.79    3.70
  -4   2   8   59.29    4.10
   4  -2   8   63.59    4.40
   4  -2   8   68.49    4.00
  -4  -2   8   70.79    6.90
   4   2   8   50.19    3.90
  -4  -2   8   55.79    6.60
  -4  -2   8   59.89    5.50
  -4  -2   8   53.49    3.90
  -4  -2   8   57.19    4.80
  -4  -2   8   57.19    4.00
  -4  -2   8   54.69    6.50
  -4  -2   8   61.49    5.70
   4   2   8   69.29    4.00
  -4  -2   8   63.19    4.50
   4   2   8   60.69    3.90
  -4  -2   8   56.49    6.10
  -4  -2   8   53.09    4.10
  -4  -2   8   54.09    4.20
  -4  -2   8   58.99    5.30
  -4   3   8   51.79    3.40
  -4   3   8   54.79    3.70
   4  -3   8   60.99    3.90
  -4   3   8   42.70    5.60
  -4   3   8   52.89    3.40
   4  -3   8   58.39    3.80
  -4   3   8   44.60    3.70
  -4   3   8   52.69    4.10
  -4   3   8   51.39    3.60
  -4   3   8   52.79    3.40
  -4   3   8   51.89    3.60
   4  -3   8   58.59    3.50
  -4  -3   8   52.89    4.70
  -4  -3   8   52.49    4.70
  -4  -3   8   58.69    4.60
  -4  -3   8   48.90    5.30
  -4  -3   8   51.59    4.00
  -4  -3   8   48.30    3.60
   4   3   8   54.29    3.60
   4   3   8   51.29    3.40
  -4  -3   8   44.50    3.60
   5   0   0    0.20    0.60
  -5   0   0    0.10    0.80
   5   0   0   -0.10    0.40
  -5   0   0    0.00    1.30
  -5   0   0   -0.10    1.30
  -5   0   0    0.20    0.90
   5   0   0   -0.30    0.40
   5   0   0    0.30    0.40
   5  -1   0  281.97   15.40
   5   1   0  275.37   15.50
   5   1   0  283.37   15.30
   5  -1   0  275.37   15.40
  -5  -1   0  297.77   17.70
  -5   1   0  280.47   16.20
  -5  -1   0  256.77   17.20
   5   1   0  288.07   15.80
   5  -1   0  278.57   16.00
  -5   1   0  302.67   17.70
   5   1   0  289.07   15.40
  -5   1   0  267.97   17.50
   5   2   0    0.60    1.00
  -5  -2   0   -0.20    1.80
  -5   2   0   -1.20    1.50
   5   2   0    0.00    0.60
   5  -2   0   -0.30    0.50
   5   2   0    1.50    0.60
  -5   2   0   -0.40    1.10
   5  -2   0    0.00    0.70
  -5   3   0  188.28   12.40
   5   3   0  179.28   10.40
   5  -3   0  154.28    9.80
   5  -3   0  175.18   10.80
  -5   3   0  176.08   12.90
  -5   3   0  177.78   11.00
  -5  -3   0  161.78   12.30
   5  -3   0  154.48    9.90
   5   3   0  178.98   11.40
   5  -3   0  156.38    9.80
   5  -3   0  183.38    9.90
  -5   3   0  180.28   11.00
  -5   3   0  181.78   10.90
   5   3   0  178.58    9.80
   5  -3   0  167.58    9.50
   5  -3   0  165.88   10.10
   5  -3   0  167.58   10.00
  -5  -3   0  162.78   12.60
  -5  -3   0  183.98   17.50
  -5  -3   0  190.28   13.70
  -5   3   0  176.88   10.80
   5  -3   0  172.48   10.60
  -5  -3   0  168.38   13.40
  -5  -3   0  162.68   11.10
  -5  -3   0  177.38   13.50
  -5  -3   0  185.58   12.80
  -5   4   0    0.60    1.60
  -5  -4   0    1.00    2.70
  -5   4   0    1.90    2.00
   5  -4   0    0.70    0.80
   5  -4   0    0.20    0.80
   5  -4   0   -0.10    0.60
   5  -4   0    0.00    0.60
  -5  -4   0   -0.20    2.30
  -5  -4   0    0.00    2.50
   5   4   0    1.00    0.80
   5  -4   0   -0.10    1.00
   5   4   0    0.60    0.70
   5   4   0    0.00    0.80
  -5  -4   0    0.10    2.20
   5   4   0    0.70    1.20
  -5  -4   0   -1.70    2.50
  -5   4   0    0.40    1.50
   5  -4   0    2.20    1.10
  -5   4   0    0.20    1.50
  -5  -4   0    0.10    2.50
  -5  -4   0    0.00    3.80
   5  -4   0    0.30    0.80
  -5  -4   0    0.40    5.10
   5  -4   0   -0.20    0.70
   5  -4   0   -0.20    0.90
  -5  -5   0  125.39   15.20
   5  -5   0  110.79    6.90
  -5  -5   0  104.09   11.90
  -5  -5   0  128.49   10.10
   5  -5   0  112.09    7.30
  -5  -5   0  133.09   11.20
   5   5   0  114.89    7.10
  -5   5   0  130.19    8.50
  -5  -5   0  122.39   16.50
   5  -5   0  109.99    7.10
  -5  -5   0  120.99   10.90
   5  -5   0  111.79    8.20
  -5   5   0  124.39    8.30
   5   5   0  118.69    7.80
   5  -5   0  112.59    7.50
  -5  -5   0  115.59   10.00
  -5   5   0  120.29    9.60
  -5  -5   0  141.49   11.50
   5  -5   0  109.49    7.20
   5   5   0  115.79    7.30
   5  -5   0  113.19    7.50
   5   5   0  114.59    7.20
   5  -6   0    0.90    1.30
   5  -6   0    0.10    1.00
   5  -6   0    0.20    1.10
  -5   6   0   -0.70    1.60
  -5  -6   0    1.60    4.20
   5  -6   0    3.50    1.30
   5   6   0    0.30    0.80
   5   6   0   -0.10    0.70
   5  -6   0   -0.30    1.00
   5   6   0    0.90    1.00
  -5  -6   0   -0.30    4.60
  -5  -6   0    1.40    2.70
  -5  -6   0    1.30    2.70
  -5  -6   0    0.90    3.50
   5  -6   0    0.30    0.90
  -5  -6   0   -0.10    2.40
   5   7   0   33.60    2.40
   5  -7   0   35.00    2.90
  -5  -7   0   28.70    5.70
   5  -7   0   34.60    3.10
   5   7   0   33.60    2.80
   5   7   0   33.10    2.70
  -5  -7   0   30.10    4.80
   5  -7   0   34.50    3.10
   5  -7   0   34.70    3.10
  -5  -7   0   28.00    7.30
  -5   7   0   32.50    2.40
   5  -7   0   38.00    2.80
  -5   8   0   -0.80    1.00
   5   8   0    0.50    0.50
   5  -8   0    0.60    0.70
  -5  -8   0    1.00    2.20
   5   8   0    0.80    0.50
  -5   0   1    1.40    1.30
  -5   0   1    1.00    1.70
   5   0   1    0.00    0.60
   5   0   1    2.30    1.10
  -5   0  -1    3.00    1.80
  -5   0   1    0.90    1.00
   5   0  -1    1.00    0.60
   5   0  -1    0.60    0.40
   5   0  -1    0.40    0.50
   5   0   1   -0.50    0.40
  -5   0  -1    0.80    1.40
  -5  -1  -1   80.89    6.80
   5  -1   1   86.89    5.80
   5  -1   1   93.19    6.70
   5  -1   1   84.19    5.20
  -5   1   1   88.59    7.60
  -5  -1  -1   86.79    6.90
   5   1  -1   84.29    5.10
  -5   1   1   86.49    6.10
   5  -1   1   88.49    5.80
   5  -1   1   84.79    5.20
   5   1  -1   85.29    5.40
  -5   1   1   82.29    7.30
  -5  -1   1   85.29    6.10
  -5  -1   1   73.39    7.40
   5   1   1   86.39    6.30
   5   1   1   87.59    5.40
  -5   1  -1   84.89    6.90
   5  -1  -1   80.69    5.20
   5   1   1   76.39    5.70
  -5  -1   1   80.79    7.30
  -5  -1   1   80.09    7.20
   5  -1  -1   84.29    5.10
  -5   1  -1   80.79    6.80
   5   1   1   85.99    5.20
   5   1   1   88.29    5.60
  -5  -1   1   82.09    6.20
   5  -1  -1   85.09    5.60
   5   1   1   85.99    5.10
   5   1   1   83.59    6.60
   5   2  -1   18.70    2.00
  -5  -2  -1   19.70    3.60
   5  -2   1   20.00    1.80
   5   2  -1   19.60    1.70
   5  -2   1   20.60    2.40
   5  -2   1   19.50    1.90
   5  -2   1   19.70    2.30
  -5   2   1   29.50    3.00
   5  -2   1   20.20    2.30
  -5   2   1   14.20    3.40
  -5  -2  -1   14.70    3.40
   5   2   1   18.20    2.00
   5   2   1   19.60    1.90
   5  -2  -1   20.80    1.80
  -5   2  -1   26.00    3.70
   5   2   1   20.70    1.70
   5   2   1   18.60    1.80
  -5  -2   1   10.80    3.50
  -5   2  -1   31.30    3.90
   5  -2  -1   19.30    2.30
  -5  -2   1   16.90    3.60
  -5  -2   1   20.80    3.90
   5   2   1   25.60    3.10
   5  -3   1  362.36   18.60
  -5  -3  -1  362.46   22.00
  -5  -3  -1  370.76   22.60
  -5  -3  -1  369.96   27.30
  -5   3   1  332.47   19.60
   5  -3   1  352.76   19.40
  -5  -3  -1  319.87   21.20
  -5   3   1  314.97   21.70
   5  -3   1  299.97   18.50
   5   3  -1  325.97   18.30
   5  -3   1  339.17   19.40
  -5  -3  -1  369.76   22.30
  -5   3   1  353.66   19.90
   5  -3   1  319.77   18.70
   5   3  -1  337.97   19.80
  -5   3   1  320.37   18.30
  -5   3   1  294.07   18.60
   5  -3   1  338.57   18.50
  -5   3   1  363.16   21.60
   5  -3   1  329.67   18.10
   5  -3   1  315.57   18.40
   5  -3   1  316.57   18.60
  -5   3   1  348.17   20.00
   5  -3   1  316.67   18.70
   5  -3   1  325.87   18.80
   5  -3   1  305.77   18.40
  -5   3   1  348.77   19.70
   5   3  -1  355.76   18.90
  -5  -3  -1  377.46   21.50
   5  -3  -1  303.87   18.40
  -5  -3   1  337.47   22.10
   5  -3  -1  310.67   18.50
  -5  -3   1  364.26   21.60
  -5  -3   1  359.46   19.80
  -5  -3   1  295.07   19.10
   5   3   1  334.37   20.20
  -5   3  -1  340.57   19.50
  -5  -3   1  312.37   22.00
  -5  -3   1  333.67   21.20
  -5   3  -1  350.96   20.70
   5   3   1  325.17   18.40
  -5   3  -1  343.87   19.30
  -5   3  -1  323.07   21.30
   5  -3  -1  304.27   18.50
   5   3   1  360.06   19.30
   5   3   1  359.46   18.40
   5   3   1  309.27   18.80
   5  -3  -1  354.96   18.40
  -5  -3   1  350.76   22.30
  -5  -3   1  354.46   27.10
   5  -3  -1  348.57   19.30
   5   3   1  348.77   18.70
  -5  -3   1  347.17   21.40
  -5   3  -1  344.47   19.40
   5  -3  -1  307.57   18.30
   5  -3  -1  307.17   18.60
   5   3   1  345.67   18.00
   5  -3  -1  316.07   18.00
   5   3   1  353.36   18.50
   5   3   1  335.87   18.20
  -5  -3   1  398.26   22.20
  -5   4   1  312.37   17.70
   5  -4   1  274.77   16.60
   5   4  -1  282.97   16.20
   5  -4   1  278.77   16.60
   5  -4   1  289.47   17.50
  -5  -4  -1  306.57   19.30
  -5   4   1  293.77   17.70
   5  -4   1  299.17   16.50
   5   4  -1  282.07   18.00
  -5   4   1  269.07   20.00
  -5   4   1  310.27   18.00
   5  -4   1  281.67   16.70
   5  -4   1  319.77   16.40
  -5  -4  -1  311.27   20.20
  -5  -4  -1  324.17   25.60
  -5  -4  -1  290.37   19.50
   5  -4   1  309.17   16.50
  -5  -4  -1  303.77   20.40
   5  -4   1  302.07   17.50
  -5   4   1  305.07   19.40
   5   4  -1  281.77   16.20
  -5   4   1  303.47   16.00
   5  -4   1  273.37   16.30
  -5  -4  -1  281.67   19.60
   5  -4   1  289.37   16.50
   5   4  -1  304.57   16.50
   5  -4   1  266.47   16.40
   5   4  -1  317.07   17.00
   5  -4   1  289.27   16.30
  -5   4  -1  308.47   17.30
   5  -4  -1  285.77   16.40
  -5   4  -1  303.37   17.40
   5  -4  -1  305.37   16.30
  -5  -4   1  294.17   20.20
  -5   4  -1  333.77   19.10
  -5  -4   1  277.67   19.30
   5   4   1  282.07   18.20
  -5  -4   1  265.67   19.80
  -5  -4   1  261.27   19.40
   5   4   1  303.97   16.60
   5   4   1  298.57   16.30
  -5  -4   1  298.27   19.50
   5  -4  -1  293.17   15.90
   5  -4  -1  267.07   16.50
  -5   4  -1  274.77   19.70
   5  -4  -1  273.17   16.40
  -5  -4   1  297.07   25.10
  -5   4  -1  302.57   17.40
  -5  -4   1  287.97   20.10
  -5  -4   1  303.37   19.50
   5   4   1  301.47   17.10
   5  -4  -1  285.77   16.20
   5   4   1  295.87   16.40
   5   4   1  289.37   16.20
  -5   5   1  274.97   14.90
  -5  -5  -1  292.37   24.00
   5  -5   1  280.87   15.40
  -5   5   1  267.87   16.40
  -5  -5  -1  273.47   19.00
   5   5  -1  278.87   15.30
  -5  -5  -1  229.68   23.80
   5   5  -1  252.17   15.00
   5   5  -1  257.37   15.30
  -5   5   1  276.97   16.80
   5  -5   1  283.27   16.60
  -5  -5  -1  265.87   18.90
   5  -5   1  270.67   15.70
  -5  -5  -1  237.78   17.80
   5   5  -1  275.27   15.90
   5  -5   1  273.77   15.80
   5  -5   1  273.27   15.50
   5  -5   1  264.17   15.70
   5  -5   1  261.37   15.30
   5   5  -1  274.37   15.20
   5   5   1  274.27   15.30
   5  -5  -1  264.67   15.30
   5  -5  -1  287.27   15.20
  -5   5  -1  279.67   16.30
   5  -5  -1  267.37   15.10
   5  -5  -1  280.87   14.70
  -5  -5   1  270.67   18.40
  -5   5  -1  274.17   17.80
   5  -5  -1  274.27   15.70
   5  -5  -1  265.47   16.30
  -5   5  -1  296.47   16.50
  -5  -5   1  273.87   24.00
  -5  -5   1  264.77   19.00
   5   5   1  273.17   15.00
   5   5   1  273.47   15.50
   5  -5  -1  269.87   15.50
  -5  -5   1  263.97   19.00
  -5  -5   1  263.87   18.80
   5   5   1  272.27   16.00
  -5  -5   1  281.67   19.30
   5  -5  -1  263.87   15.30
   5   5   1  273.07   15.30
  -5   5  -1  294.77   16.40
  -5  -5   1  276.07   18.40
   5   6  -1  164.78    9.40
  -5   6   1  149.39   10.60
   5  -6   1  166.58   10.70
   5  -6   1  159.78    9.60
  -5   6   1  166.68   10.90
   5   6  -1  165.38   10.10
  -5   6   1  155.38   11.60
   5  -6   1  160.58    9.90
  -5  -6  -1  136.09   17.10
  -5   6   1  164.68    9.00
   5   6  -1  159.68    9.40
   5  -6   1  166.68    9.40
   5  -6   1  163.78    9.40
   5  -6   1  157.98    9.80
  -5  -6  -1  135.69   14.30
  -5  -6  -1  139.49   11.90
  -5  -6  -1  164.78   12.80
   5  -6   1  165.98    9.80
  -5  -6  -1  145.79   12.30
   5   6  -1  161.98    9.20
   5   6   1  158.88    9.00
  -5  -6   1  163.68   12.70
  -5  -6   1  161.08   16.60
  -5   6  -1  173.78   10.50
   5  -6  -1  157.88    9.70
   5   6   1  155.78   10.10
   5   6   1  149.49    9.30
  -5  -6   1  140.49   11.30
   5  -6  -1  164.58    9.40
   5  -6  -1  162.38   10.50
  -5  -6   1  157.98   12.70
   5  -6  -1  167.28    9.60
  -5  -6   1  152.68   12.60
   5  -6  -1  160.28    9.70
  -5   6  -1  170.88   10.50
   5   6   1  165.88    9.80
   5   6   1  154.18    9.50
  -5  -6   1  142.19   16.60
   5   7  -1  285.07   15.70
   5   7  -1  282.77   15.30
   5   7  -1  275.37   15.50
   5  -7   1  310.37   16.20
   5   7  -1  297.97   15.70
   5  -7   1  310.97   16.00
   5  -7   1  295.47   16.10
   5  -7   1  302.57   15.60
  -5  -7  -1  257.17   22.50
  -5  -7  -1  252.07   19.50
  -5  -7  -1  255.17   17.60
  -5   7   1  240.88   17.40
   5  -7   1  304.47   15.80
  -5   7   1  286.47   15.40
   5   7   1  273.17   15.60
  -5  -7   1  261.07   21.90
  -5  -7   1  245.08   17.70
   5   7   1  285.27   15.40
  -5   7  -1  285.07   16.40
   5  -7  -1  308.97   15.90
   5   7   1  275.17   15.90
  -5  -7   1  260.77   17.20
   5   7   1  278.27   15.70
   5  -7  -1  303.37   15.70
   5  -7  -1  292.47   16.00
   5  -7  -1  298.97   16.00
   5   8  -1    0.40    0.50
  -5   8   1    0.50    1.00
  -5  -8   1   -0.60    1.30
   5   0  -2  546.45   29.00
   5   0   2  542.25   30.20
   5   0   2  551.04   29.20
   5   0  -2  499.05   28.60
   5   0   2  537.05   28.80
  -5   0   2  547.45   30.10
  -5   0   2  535.35   30.20
  -5   0   2  507.75   31.70
  -5   0   2  486.85   29.60
   5   0   2  557.34   29.40
  -5   0  -2  606.04   30.70
   5   0   2  550.34   28.90
  -5   0   2  553.44   30.50
  -5   0  -2  524.55   30.50
  -5   0   2  490.65   31.00
  -5  -1  -2   35.10    4.80
  -5   1   2   29.00    4.50
   5  -1   2   32.90    2.50
  -5   1   2   34.70    3.50
   5  -1   2   38.40    3.80
  -5   1   2   32.50    3.30
  -5   1   2   30.10    3.90
  -5   1   2   30.00    3.00
   5   1  -2   29.80    2.60
   5   1  -2   29.40    2.20
   5  -1   2   31.50    3.00
  -5   1   2   29.60    5.40
   5  -1   2   31.60    2.70
  -5  -1  -2   27.40    3.70
  -5  -1   2   28.80    4.30
   5   1   2   32.70    3.30
  -5  -1   2   26.30    3.70
  -5  -1   2   27.50    3.20
   5  -1  -2   34.30    2.50
   5   1   2   31.80    2.70
  -5   1  -2   31.90    4.00
  -5  -1   2   30.30    3.70
   5   1   2   33.60    2.90
  -5   1  -2   26.10    3.50
   5   1   2   32.70    2.50
   5  -1  -2   31.60    2.70
  -5  -1   2   32.00    3.40
   5   1   2   31.20    2.40
  -5  -1   2   28.90    5.00
  -5   2   2 1152.28   57.99
   5   2  -2 1233.18   58.39
   5  -2   2 1026.40   58.09
  -5  -2  -2 1090.89   60.29
  -5  -2  -2 1203.78   61.39
   5  -2   2 1218.48   58.99
  -5   2   2 1106.39   57.79
   5  -2   2 1071.69   58.29
   5  -2   2  976.60   58.09
   5  -2   2  988.40   58.09
  -5   2   2 1209.98   60.39
  -5   2   2 1086.49   59.39
   5  -2   2 1121.59   57.99
  -5   2   2 1128.79   58.19
  -5   2   2 1145.49   60.19
   5  -2   2  958.00   58.19
  -5   2   2 1144.69   57.99
   5  -2   2  988.20   57.69
  -5   2   2  979.20   61.19
   5  -2   2 1128.29   60.09
   5  -2   2  967.70   57.99
   5  -2   2  985.90   57.89
  -5   2   2 1158.78   62.19
   5  -2   2 1080.69   58.39
  -5   2   2 1129.59   58.39
   5  -2   2 1135.09   58.89
  -5   2   2 1054.99   58.59
  -5   2   2 1062.09   59.19
  -5   2   2 1099.29   59.89
   5  -2   2 1126.09   59.09
  -5  -2   2 1237.68   59.49
   5   2   2 1101.49   57.59
  -5  -2   2 1109.99   59.39
  -5  -2   2 1041.70   68.19
   5   2   2 1072.99   58.49
   5   2   2 1118.19   57.79
   5   2   2 1084.49   58.29
  -5  -2   2 1050.69   59.69
  -5   2  -2  966.80   59.99
   5  -2  -2  992.30   57.79
  -5  -2   2 1089.99   59.59
   5   2   2 1021.50   58.09
  -5   2  -2 1127.79   60.09
   5   2   2 1118.29   57.89
   5   2   2 1124.69   57.79
   5  -2  -2  999.20   57.89
   5  -2  -2 1052.39   57.49
  -5  -2   2 1007.20   61.59
   5   2   2 1093.49   58.19
   5   2   2 1067.49   57.69
  -5  -2   2 1132.09   58.69
  -5   2  -2 1142.99   58.79
   5  -2  -2 1109.99   57.89
  -5   2  -2 1137.09   58.69
  -5  -2   2 1198.08   59.09
   5   2   2 1178.88   58.49
  -5  -2   2 1039.10   61.99
   5   2   2 1139.89   58.09
   5   2   2 1178.38   58.39
  -5  -2   2 1007.40   62.29
   5   2   2 1043.10   57.99
  -5  -2   2 1129.49   59.79
  -5  -2   2 1033.90   60.89
  -5  -2   2 1097.49   61.29
  -5  -2   2 1241.78   58.39
   5   2   2 1052.69   57.89
  -5  -2   2 1058.09   59.19
   5   2   2 1060.39   57.99
  -5  -2   2 1058.69   62.19
  -5  -2   2 1191.08   58.59
  -5  -2   2 1080.69   61.69
   5   2   2 1052.69   57.69
   5  -2  -2 1090.99   58.49
  -5  -2   2 1096.29   61.19
  -5  -3  -2  105.09    9.60
  -5   3   2   97.59    5.60
  -5   3   2   91.49    6.10
  -5   3   2   95.49    7.90
   5  -3   2   91.69    6.50
   5  -3   2   99.99    6.80
   5  -3   2   84.29    6.00
  -5   3   2   85.29    9.00
   5  -3   2   90.19    6.50
   5   3  -2   99.09    6.30
   5  -3   2   85.39    6.30
  -5   3   2   99.79    5.80
   5  -3   2   94.49    6.70
  -5  -3  -2  104.99    8.40
   5  -3   2   96.49    6.20
   5  -3   2   82.29    6.00
   5  -3   2   97.49    6.00
   5  -3   2   88.39    6.10
   5  -3   2   83.99    5.90
   5  -3   2   82.29    6.10
  -5   3   2   93.69    7.20
  -5   3   2   90.79    5.70
  -5   3   2   93.69    7.40
  -5   3   2   97.59    8.10
  -5   3   2   93.79    9.40
  -5  -3  -2  107.39   13.50
  -5   3   2   93.89    6.00
   5  -3   2   92.79    6.20
  -5  -3  -2  109.19    9.30
   5  -3   2   96.49    7.00
  -5   3   2   99.19    7.80
  -5  -3  -2   93.89    8.60
  -5  -3   2   86.59    9.40
   5   3   2   84.39    7.90
   5  -3  -2   81.59    5.80
   5  -3  -2   87.09    6.50
   5  -3  -2   87.59    5.90
   5   3   2   95.99    6.00
   5   3   2   99.29    6.20
   5   3   2   90.49    5.90
   5  -3  -2   85.19    5.70
  -5  -3   2   87.89    8.70
   5   3   2   93.99    5.80
  -5   3  -2   95.69    7.90
   5   3   2   91.39    5.40
  -5  -3   2   94.99    9.50
   5   3   2   83.49    6.80
   5   3   2   89.89    5.90
  -5  -3   2   99.99    8.80
  -5  -3   2   89.69    6.60
   5   3   2   91.59    5.90
   5   3   2   89.49    5.80
   5   3   2   90.89    5.70
   5  -3  -2  100.79    5.90
  -5  -3   2   92.39    8.60
  -5  -3   2   88.49   13.00
   5  -3  -2   90.59    5.40
  -5  -3   2   94.59    6.60
  -5   3  -2   97.29    6.70
   5   3   2   94.99    5.60
  -5  -3   2   99.39    9.10
   5   3   2   93.89    6.20
   5   3   2   91.19    5.50
  -5  -3   2   85.29    7.20
   5  -3  -2   82.09    5.70
  -5  -3   2   97.09    7.80
  -5  -3   2   97.59    9.70
   5   3   2   92.19    5.50
   5   3   2   99.29    6.10
   5   3   2   93.09    6.50
  -5  -3   2   88.79    9.40
  -5  -3   2   90.99    7.20
  -5   3  -2   81.29    8.00
  -5   4   2  221.98   13.70
  -5   4   2  189.48   15.90
   5  -4   2  187.58   12.10
   5  -4   2  214.08   13.10
  -5   4   2  204.78   11.70
   5   4  -2  225.28   12.50
   5   4  -2  214.38   13.70
  -5   4   2  231.78   15.00
   5  -4   2  197.78   12.70
  -5  -4  -2  202.98   15.10
   5  -4   2  216.28   12.10
  -5   4   2  224.28   14.40
  -5  -4  -2  215.28   15.70
  -5   4   2  202.38   12.10
  -5   4   2  205.88   13.50
   5  -4   2  224.58   12.60
   5  -4   2  201.38   12.30
   5   4  -2  208.08   11.80
  -5   4   2  199.98   12.00
   5  -4   2  194.18   12.20
  -5  -4  -2  236.28   20.70
  -5   4   2  217.18   11.60
   5  -4   2  196.88   12.20
  -5  -4  -2  219.18   15.50
   5  -4   2  198.98   13.30
   5  -4   2  197.78   12.00
  -5  -4   2  186.58   15.40
  -5  -4   2  194.48   15.40
   5  -4  -2  206.28   11.80
  -5  -4   2  202.78   15.00
   5  -4  -2  209.38   11.50
   5  -4  -2  201.78   12.90
   5   4   2  207.18   12.00
   5   4   2  205.88   11.90
   5   4   2  205.98   11.60
  -5  -4   2  207.08   20.50
  -5   4  -2  218.28   13.00
   5   4   2  204.68   11.50
  -5  -4   2  212.38   13.40
  -5  -4   2  212.68   15.10
   5  -4  -2  190.78   12.10
  -5  -4   2  197.28   15.10
   5  -4  -2  198.28   12.00
   5   4   2  211.38   12.40
   5  -4  -2  228.18   12.00
   5   4   2  211.78   11.40
  -5   4  -2  179.98   14.80
  -5  -4   2  208.38   16.00
   5   4   2  216.18   13.00
   5  -4  -2  199.58   11.90
  -5  -4   2  199.78   15.70
  -5   4  -2  221.58   12.90
  -5   4  -2  219.68   14.40
   5   4   2  219.08   12.00
  -5  -4   2  187.38   12.50
   5  -4  -2  203.08   12.00
   5   4   2  212.48   12.20
   5   4   2  203.08   14.30
  -5   5   2  231.68   12.60
   5  -5   2  217.88   13.40
   5  -5   2  221.28   13.30
   5   5  -2  230.18   12.70
   5  -5   2  213.98   13.30
  -5  -5  -2  182.08   22.10
   5  -5   2  233.78   13.10
  -5  -5  -2  196.88   15.60
   5  -5   2  229.38   13.90
   5  -5   2  215.18   12.90
   5  -5   2  245.08   13.30
  -5   5   2  220.68   14.50
   5  -5   2  232.68   14.20
   5   5  -2  233.08   13.50
   5   5  -2  225.68   12.80
   5   5  -2  229.58   12.90
  -5   5   2  230.78   14.50
  -5  -5  -2  222.38   16.40
  -5   5   2  230.18   15.80
   5  -5   2  222.78   13.10
  -5  -5  -2  226.68   16.50
   5   5   2  227.38   13.40
  -5  -5   2  232.58   17.00
  -5   5  -2  246.58   14.00
  -5   5  -2  238.08   14.00
   5  -5  -2  241.68   12.90
   5   5   2  221.98   13.80
   5   5   2  226.98   12.80
  -5  -5   2  180.68   20.20
   5   5   2  234.08   12.70
  -5  -5   2  226.28   16.10
  -5  -5   2  217.88   16.50
   5  -5  -2  235.58   12.40
   5   5   2  220.28   12.90
   5  -5  -2  219.08   12.90
  -5  -5   2  223.48   21.20
   5  -5  -2  219.08   13.20
   5   5   2  230.38   13.20
  -5   5  -2  252.17   14.10
  -5   5  -2  221.78   15.30
  -5  -5   2  230.98   16.00
   5   5   2  220.88   12.60
  -5  -5   2  222.18   16.80
   5  -5  -2  224.28   13.00
   5  -5  -2  222.98   13.10
  -5  -5   2  208.68   16.20
   5  -5  -2  221.98   12.80
  -5  -6  -2   92.79    9.10
  -5   6   2   83.09    8.00
  -5   6   2   91.19    7.40
  -5  -6  -2   74.49   13.90
   5  -6   2   97.09    7.00
  -5  -6  -2   84.39    8.60
   5   6  -2   93.69    6.50
   5   6  -2   93.79    5.80
   5  -6   2   97.49    7.20
   5  -6   2  101.19    6.10
   5  -6   2  100.59    6.20
  -5   6   2   93.29    5.70
   5  -6   2   94.19    6.50
   5  -6   2   94.79    6.00
   5   6  -2   99.69    6.00
  -5   6   2   96.69    8.00
   5  -6   2   96.49    6.50
   5  -6   2  100.79    6.40
   5   6  -2   97.39    6.00
  -5   6  -2   86.89    8.40
   5  -6  -2   95.09    5.80
   5  -6  -2   95.39    6.00
   5   6   2   91.09    5.70
  -5  -6   2   92.39    9.10
   5   6   2   88.59    6.20
   5   6   2   90.59    6.00
  -5   6  -2  100.99    7.00
  -5  -6   2   86.69   11.90
  -5  -6   2   97.99    9.00
  -5   6  -2  105.09    7.10
   5   6   2   93.99    6.00
   5  -6  -2   97.19    5.90
   5  -6  -2   93.69    6.30
  -5  -6   2   76.19   12.10
  -5   6  -2   99.89    7.10
  -5  -6   2   92.09    8.30
   5  -6  -2   97.49    5.50
   5   6   2   96.49    5.70
  -5  -6   2   90.69    8.90
   5  -6  -2   96.89    6.20
   5  -6  -2   95.59    6.10
   5   6   2   91.39    6.70
   5   6   2   94.79    6.40
   5   6   2   93.59    6.00
  -5  -6   2   86.89    8.50
   5   7  -2  188.48   10.10
   5  -7   2  192.48   10.50
   5   7  -2  174.28   10.00
   5   7  -2  179.18   10.20
   5  -7   2  192.78   10.60
   5  -7   2  192.98   10.30
   5  -7   2  196.38   10.60
  -5  -7  -2  142.79   13.70
  -5   7   2  165.98   11.80
  -5   7   2  181.78    9.90
  -5  -7  -2  145.49   11.30
  -5   7   2  183.98   10.20
  -5  -7  -2  162.68   12.10
   5  -7   2  190.08   10.90
  -5  -7  -2  166.58   16.90
  -5  -7   2  164.48   15.20
   5   7   2  168.78   10.40
   5   7   2  188.08   10.20
   5   7   2  184.88    9.90
  -5   7  -2  188.68   10.90
   5  -7  -2  198.08   10.40
  -5  -7   2  141.89   14.30
  -5  -7   2  156.08   12.20
   5   7   2  174.28   10.10
  -5  -7   2  156.58   10.50
   5   7   2  173.08    9.90
   5  -7  -2  199.18   10.20
   5  -7  -2  197.08   10.50
   5   0   3    0.20    0.60
  -5   0   3    6.80    2.10
  -5   0   3    5.30    1.40
  -5   0   3    0.60    1.50
   5   0   3    3.70    1.00
   5   0   3    0.80    0.80
   5   0   3    1.00    0.80
  -5   0   3    2.00    1.60
   5   0   3    1.00    0.70
  -5   0   3    2.00    1.40
   5   0   3    3.70    1.20
   5   0  -3    1.50    0.60
  -5   0   3    2.70    1.00
  -5   0   3    6.90    2.20
   5   0   3    0.20    0.60
   5   0   3    1.00    0.90
  -5   0   3    3.50    1.70
  -5   0   3   -0.10    2.40
   5   0   3    0.50    0.60
  -5   0   3    0.80    0.80
   5   0   3    2.30    0.80
  -5   0   3   -0.40    0.90
   5   0   3   -0.50    0.90
   5   0   3    0.80    0.50
  -5   0   3   -0.10    1.80
  -5   0   3   -4.00    4.60
  -5   0   3    0.70    0.80
  -5   0   3    0.70    0.80
  -5   0   3    0.60    1.90
   5   0   3    1.40    0.90
  -5   0   3    2.70    1.70
   5   0  -3    0.80    0.60
   5   0   3    0.90    0.80
   5   0   3    1.10    0.70
   5   0   3    1.80    0.70
  -5   0   3    0.30    0.90
  -5   0   3    0.70    0.90
  -5   0  -3    1.40    1.60
   5   0  -3    4.20    1.20
  -5   0   3   -0.10    0.80
  -5   0   3    0.50    1.50
   5   0   3   -0.10    0.70
  -5   0   3   -2.80    2.70
  -5   0   3   -1.10    2.70
  -5   0   3   -0.10    0.80
  -5   0   3    0.50    2.00
  -5   0   3    0.80    1.50
   5   0   3    1.20    0.60
   5   0   3    0.20    0.70
   5  -1   3  338.87   21.00
   5  -1   3  344.67   19.70
   5  -1   3  351.96   20.20
  -5   1   3  371.36   19.50
  -5   1   3  351.96   21.10
   5  -1   3  396.06   22.10
  -5   1   3  366.76   21.00
  -5  -1  -3  393.86   21.80
  -5   1   3  355.76   22.30
   5  -1   3  401.36   20.60
  -5   1   3  361.26   20.30
  -5   1   3  329.27   21.50
   5  -1   3  374.56   19.60
   5  -1   3  345.77   19.50
  -5   1   3  380.66   20.40
  -5   1   3  340.17   21.50
   5  -1   3  322.07   19.50
  -5   1   3  346.47   21.30
  -5   1   3  391.76   19.50
  -5   1   3  374.56   19.70
  -5   1   3  373.76   19.80
   5  -1   3  332.07   19.70
   5  -1   3  291.97   19.80
  -5  -1  -3  358.76   20.20
  -5   1   3  395.86   19.70
   5  -1   3  357.16   19.60
   5  -1   3  351.46   19.80
  -5   1   3  375.06   19.30
   5   1  -3  376.76   19.90
  -5   1   3  408.76   22.30
   5  -1   3  339.57   19.70
  -5   1   3  374.36   20.00
  -5   1   3  338.87   20.80
   5  -1   3  374.36   20.30
  -5   1   3  369.56   19.70
   5  -1   3  323.37   20.00
   5  -1   3  363.66   19.60
  -5   1   3  360.26   19.40
   5  -1   3  350.26   20.00
  -5   1   3  353.76   19.70
  -5   1   3  375.46   20.70
  -5   1   3  378.56   22.60
  -5   1   3  359.06   21.90
  -5   1   3  343.77   24.10
   5  -1   3  316.57   19.60
   5  -1   3  317.37   20.00
   5  -1   3  350.16   20.00
  -5   1   3  363.16   19.60
   5  -1   3  332.07   19.50
   5  -1   3  325.87   19.80
  -5  -1   3  350.36   21.50
   5   1   3  345.67   19.60
   5   1   3  346.87   19.60
  -5  -1   3  347.67   19.60
   5  -1  -3  320.77   19.40
   5   1   3  382.16   20.00
   5   1   3  363.16   19.90
   5   1   3  360.46   19.50
   5   1   3  314.67   19.70
   5   1   3  379.86   19.70
  -5  -1   3  367.86   20.60
  -5  -1   3  391.06   21.10
  -5  -1   3  285.47   24.90
  -5  -1   3  376.86   22.10
   5   1   3  338.07   19.40
  -5  -1   3  355.66   21.10
  -5  -1   3  386.46   20.70
   5  -1  -3  357.66   19.40
  -5  -1   3  332.77   23.90
  -5  -1   3  388.86   19.80
  -5  -1   3  355.46   25.40
  -5  -1   3  383.46   20.00
  -5  -1   3  366.86   21.00
   5   1   3  360.46   19.50
   5   1   3  344.57   19.70
  -5  -1   3  393.66   20.00
   5   1   3  345.37   20.70
   5   1   3  343.97   19.80
   5   1   3  353.86   19.90
   5   1   3  344.87   20.00
  -5  -1   3  329.27   22.80
   5   1   3  345.47   19.60
   5   1   3  342.07   19.60
   5  -1  -3  326.97   19.30
   5   1   3  332.67   19.30
  -5  -1   3  381.86   20.10
  -5  -1   3  348.57   21.70
  -5  -1   3  382.66   19.70
   5   1   3  363.06   19.20
  -5  -1   3  373.66   21.30
   5  -1  -3  342.17   19.10
   5   1   3  356.26   19.60
  -5  -1   3  333.17   20.50
  -5  -1   3  336.47   21.40
  -5  -1   3  375.36   19.70
  -5  -1   3  378.26   20.70
  -5  -1   3  335.07   24.20
   5   1   3  356.76   19.70
  -5   1  -3  358.26   21.40
  -5  -1   3  343.47   21.40
   5   1   3  344.87   19.30
  -5  -1   3  305.27   22.00
   5   1   3  356.26   19.40
  -5  -1   3  346.87   21.30
  -5   2   3   87.29    6.80
   5  -2   3   78.99    5.30
  -5  -2  -3   78.59    7.50
  -5   2   3   85.29    6.90
   5  -2   3   81.09    6.80
   5  -2   3   84.19    6.00
   5  -2   3   77.39    5.30
   5  -2   3   82.29    5.60
   5  -2   3   77.09    5.40
  -5   2   3   81.39    5.80
   5  -2   3   86.69    6.10
  -5   2   3   96.29    6.00
   5  -2   3   81.29    5.30
  -5   2   3   76.99    6.30
   5   2  -3   86.99    5.60
   5  -2   3   80.59    7.30
  -5   2   3   81.59    5.10
  -5  -2  -3   96.19    7.90
  -5   2   3   76.39    7.10
  -5   2   3   69.29    6.70
  -5   2   3   86.19    7.70
  -5   2   3   82.29    5.50
  -5   2   3   84.79    5.50
   5  -2   3   74.39    5.40
  -5   2   3   73.59    8.40
   5  -2   3   74.89    5.80
  -5  -2  -3   87.99    8.40
   5  -2   3   73.79    5.40
  -5   2   3   76.89    5.30
  -5   2   3   60.39    9.10
  -5   2   3   84.09    5.20
   5  -2   3   82.19    5.60
   5  -2   3   83.59    5.30
  -5   2   3   81.49    5.30
  -5   2   3   75.49    7.80
   5  -2   3   97.19    6.30
  -5   2   3   62.59    7.80
  -5   2   3   80.89    5.10
   5  -2   3   73.79    5.40
   5  -2   3   93.99    5.50
  -5   2   3   85.59    7.40
  -5   2   3   82.79    4.90
  -5   2   3   85.99    5.00
  -5  -2   3   80.29    6.30
   5   2   3   77.59    5.10
   5   2   3   81.09    5.10
  -5  -2   3   71.69    8.00
  -5  -2   3   74.49    9.30
   5  -2  -3   73.29    5.10
  -5  -2   3   89.89    6.00
   5   2   3   72.59    5.10
  -5  -2   3   78.19   10.00
   5   2   3   76.49    4.90
   5   2   3   71.69    5.20
  -5   2  -3   84.29    7.20
  -5  -2   3   75.39    7.00
  -5  -2   3   82.59    5.90
   5   2   3   77.79    4.80
   5   2   3   71.59    5.40
  -5  -2   3   89.79    6.70
  -5  -2   3   84.89   17.00
   5   2   3   78.19    5.30
  -5  -2   3   79.39    5.60
  -5  -2   3   81.79    6.40
   5   2   3   80.49    5.20
   5   2   3   80.19    5.90
   5   2   3   73.09    5.20
   5   2   3   86.79    5.50
  -5  -2   3   62.49    7.50
   5   2   3   77.29    5.20
  -5  -2   3   82.89    6.90
  -5  -2   3   79.99    7.00
  -5  -2   3   67.29   10.80
  -5  -2   3   75.49    8.80
   5   2   3   83.59    5.10
   5  -2  -3   83.99    5.20
  -5  -2   3   73.99    6.70
  -5  -2   3   80.19    5.40
  -5  -2   3   79.49    6.70
   5   2   3   77.19    5.20
   5   2   3   78.39    5.20
   5   2   3   80.59    5.40
  -5  -2   3   76.29    7.20
   5   2   3   76.99    5.70
   5  -2  -3   70.69    5.20
   5   2   3   74.79    5.00
  -5  -2   3   88.39    5.80
   5   2   3   79.59    5.50
   5   2   3   79.59    5.50
   5   2   3   75.29    4.90
  -5  -2   3   87.39    6.80
   5   2   3   78.89    6.20
  -5  -2   3   74.49    8.40
  -5  -2   3   84.49    5.60
  -5   3   3   31.20    3.00
  -5   3   3   34.00    4.80
  -5   3   3   32.20    2.60
  -5   3   3   29.30    3.10
   5   3  -3   30.90    3.00
  -5   3   3   31.00    2.40
   5  -3   3   32.00    3.50
  -5   3   3   29.20    2.80
   5  -3   3   29.40    4.10
  -5   3   3   28.80    2.50
  -5   3   3   30.70    2.90
  -5   3   3   30.20    2.60
   5  -3   3   28.50    2.90
  -5   3   3   30.20    4.50
   5  -3   3   30.50    3.10
   5  -3   3   31.30    2.90
  -5   3   3   23.30    5.20
   5  -3   3   31.00    2.80
   5  -3   3   31.80    2.90
   5  -3   3   27.90    2.80
   5  -3   3   30.20    3.80
  -5   3   3   16.00    5.60
   5  -3   3   31.50    3.50
  -5  -3  -3   29.80    5.50
   5  -3   3   35.90    3.50
   5  -3   3   28.90    2.90
  -5   3   3   28.70    4.90
  -5   3   3   25.90    3.40
  -5  -3  -3   41.00    9.90
   5  -3   3   32.40    4.50
  -5   3   3   30.20    3.00
  -5  -3  -3   37.60    6.50
   5  -3   3   27.90    3.00
  -5  -3  -3   27.50    5.10
   5  -3   3   31.10    3.50
   5  -3   3   38.50    6.20
   5  -3   3   28.40    2.90
  -5   3   3   34.30    4.20
  -5   3   3   30.40    6.10
   5  -3   3   31.10    3.40
   5  -3   3   32.10    2.70
   5   3   3   29.50    2.50
   5   3   3   26.50    3.00
  -5  -3   3   29.40    6.80
   5   3   3   29.10    2.60
  -5  -3   3   34.30    7.20
  -5  -3   3   33.90    6.40
  -5  -3   3   26.20    9.10
  -5   3  -3   33.00    3.30
   5  -3  -3   28.90    2.60
   5   3   3   27.30    2.70
   5   3   3   28.50    2.60
  -5  -3   3   35.10    4.50
  -5  -3   3   32.60    3.50
   5   3   3   30.30    2.40
  -5   3  -3   25.20    4.40
   5   3   3   30.40    2.50
   5   3   3   30.30    2.50
  -5  -3   3   33.40    4.50
   5   3   3   30.30    2.80
  -5  -3   3   26.90    6.30
   5   3   3   29.40    2.50
   5  -3  -3   28.80    2.70
  -5   3  -3   33.00    4.70
  -5  -3   3   29.90    6.40
  -5  -3   3   31.50    3.10
   5   3   3   33.30    2.80
   5   3   3   30.10    2.20
  -5  -3   3   30.60    4.10
   5  -3  -3   30.80    2.70
   5   3   3   30.50    2.40
   5   3   3   27.90    2.80
  -5  -3   3   26.90    6.20
   5  -3  -3   27.70    3.10
   5   3   3   31.80    3.00
   5   3   3   30.50    2.90
   5   3   3   28.30    3.40
  -5  -3   3   29.20    3.40
   5   3   3   29.00    3.40
  -5  -3   3   31.30    3.60
  -5  -3   3   29.70    5.80
   5   3   3   30.60    2.40
  -5  -3   3   31.20    4.30
  -5  -3   3   32.50    5.00
  -5  -3   3   28.40    5.60
   5  -3  -3   27.20    2.50
  -5  -3   3   30.50    4.70
   5   3   3   30.60    2.80
   5   3   3   28.40    2.50
  -5  -3   3   29.10    4.20
   5   3   3   27.60    2.30
   5  -4   3  819.02   46.60
   5   4  -3  890.11   46.70
  -5   4   3  875.61   49.70
   5  -4   3  845.42   47.20
  -5  -4  -3  835.22   49.60
   5  -4   3  925.91   46.80
  -5   4   3  839.92   45.90
  -5   4   3  885.01   48.70
  -5   4   3  880.61   46.10
  -5   4   3  879.91   46.40
  -5   4   3  919.71   49.30
   5  -4   3  936.01   46.60
   5  -4   3  929.91   47.30
  -5   4   3  898.71   46.50
  -5   4   3  769.02   47.30
   5  -4   3  903.31   47.00
  -5   4   3  899.61   46.10
   5  -4   3  907.21   49.20
  -5   4   3  854.01   48.50
   5  -4   3  829.32   46.70
   5  -4   3  903.51   47.60
  -5   4   3  871.71   45.90
   5   4  -3  908.51   46.10
   5  -4   3  843.02   46.70
   5  -4   3  886.51   46.70
  -5  -4  -3  892.71   50.29
   5  -4   3  875.31   47.60
   5  -4   3  847.02   46.70
  -5   4   3  843.42   46.50
   5  -4  -3  862.11   46.40
   5   4   3  879.61   45.80
   5   4   3  872.51   46.40
   5   4   3  857.71   46.50
   5  -4  -3  817.82   46.20
   5  -4  -3  808.12   46.30
   5   4   3  757.32   47.70
  -5  -4   3  813.82   50.49
   5  -4  -3  864.81   46.20
   5   4   3  867.81   46.10
  -5  -4   3  826.82   49.60
  -5   4  -3  896.51   48.80
   5  -4  -3  929.11   46.30
   5   4   3  863.81   45.90
  -5  -4   3  819.52   50.39
   5   4   3  869.31   45.90
   5   4   3  847.22   45.90
  -5  -4   3  833.02   46.80
   5   4   3  874.71   46.70
   5   4   3  784.42   46.70
   5   4   3  900.31   46.80
  -5  -4   3  845.12   47.10
   5   4   3  890.01   46.20
  -5  -4   3  852.41   49.60
   5   4   3  870.01   46.00
  -5  -4   3  797.32   50.39
  -5  -4   3  867.11   47.80
  -5  -4   3  855.01   50.39
  -5   4  -3  892.81   47.10
  -5  -4   3  844.82   56.49
  -5  -4   3  873.51   48.40
   5   4   3  894.31   46.30
   5   4   3  877.01   46.30
   5   4   3  820.72   46.00
   5   4   3  847.42   46.40
   5   4   3  925.61   47.20
  -5  -4   3  775.62   48.00
   5  -5   3    3.10    1.40
   5   5  -3    5.40    1.50
   5  -5   3    5.80    1.90
   5  -5   3    4.70    1.80
  -5   5   3    5.40    1.30
  -5   5   3    4.80    2.50
   5  -5   3    4.80    1.60
  -5   5   3    4.30    1.00
   5  -5   3    5.60    1.60
   5  -5   3    5.00    1.20
   5   5  -3    4.70    1.20
  -5  -5  -3    3.20    2.80
  -5   5   3    6.00    2.20
  -5  -5  -3    4.70    3.20
  -5   5   3    4.10    1.40
   5  -5   3    4.20    1.40
   5  -5   3    4.90    1.50
  -5   5   3    6.30    1.20
   5   5  -3    4.80    1.20
  -5  -5  -3    5.80    3.50
  -5   5   3    4.60    2.50
  -5   5   3    3.30    1.20
   5  -5   3    4.60    1.30
  -5   5   3    4.80    1.10
   5   5  -3    4.70    1.10
   5  -5   3    6.00    1.60
   5   5   3    4.40    1.20
   5  -5  -3    4.70    1.30
   5   5   3    5.60    0.90
  -5   5  -3    5.30    2.40
   5  -5  -3    6.40    1.40
   5   5   3    3.90    0.90
   5   5   3    5.40    1.20
   5   5   3   10.40    2.30
  -5  -5   3    2.50    3.10
   5   5   3    4.90    1.30
   5  -5  -3    4.20    1.40
  -5  -5   3    4.50    4.90
   5  -5  -3    5.00    1.40
   5   5   3    5.50    1.20
   5   5   3    8.90    1.70
  -5  -5   3    4.90    3.60
  -5  -5   3    4.80    3.50
  -5   5  -3    3.00    1.70
   5  -5  -3    3.80    1.00
   5   5   3    5.40    1.50
  -5  -5   3    4.30    3.20
  -5  -5   3    5.00    2.50
   5   5   3    5.50    0.90
   5   5   3    4.60    1.10
  -5  -5   3    7.70    3.60
  -5  -5   3    4.00    3.40
   5  -5  -3    4.10    0.90
  -5  -5   3    3.90    1.60
   5   6  -3   67.89    5.30
  -5   6   3   71.79    4.70
   5  -6   3   82.39    4.80
  -5  -6  -3   62.89    7.30
  -5   6   3   69.99    7.00
  -5   6   3   67.79    6.70
  -5   6   3   72.59    4.60
   5  -6   3   76.29    5.10
   5   6  -3   74.69    4.80
   5  -6   3   75.09    5.40
   5   6  -3   75.39    4.70
  -5  -6  -3   55.19    9.60
   5  -6   3   73.79    5.80
   5   6  -3   73.59    4.80
   5  -6   3   80.09    5.30
  -5  -6  -3   55.39    6.80
  -5   6   3   74.49    6.00
  -5  -6  -3   56.29   13.00
   5  -6   3   75.39    5.30
   5  -6   3   77.59    6.00
   5  -6   3   80.29    4.90
  -5   6   3   76.09    5.00
   5  -6  -3   79.09    5.00
  -5  -6   3   80.49    7.70
   5   6   3   66.49    5.50
   5  -6  -3   72.29    5.10
  -5   6  -3   76.39    5.70
   5   6   3   74.99    4.90
   5   6   3   73.19    4.80
  -5  -6   3   78.49    7.70
  -5   6  -3   70.89    5.90
   5  -6  -3   80.09    4.80
   5  -6  -3   76.29    4.40
   5   6   3   74.99    4.60
   5   6   3   73.09    4.60
   5   6   3   70.39    4.60
  -5  -6   3   84.69    7.40
  -5  -6   3   64.39    5.30
  -5  -6   3   64.19   10.10
  -5   6  -3   73.09    5.90
   5   6   3   74.99    4.50
  -5  -6   3   76.09    7.80
   5   6   3   68.59    5.10
   5  -6  -3   78.99    5.10
  -5  -6   3   79.09    8.00
  -5  -6   3   68.89   10.50
   5  -6  -3   73.79    4.90
   5   6   3   74.69    5.20
   5  -7   3   38.50    3.30
  -5  -7  -3   26.00    4.10
   5   7  -3   45.10    2.70
  -5   7   3   34.50    4.00
  -5  -7  -3   36.50    7.80
  -5   7   3   30.00    4.00
  -5   7   3   31.80    2.70
   5  -7   3   40.00    2.90
  -5   7   3   33.50    2.50
   5  -7   3   38.40    3.10
  -5  -7  -3   33.00    4.50
   5  -7   3   39.50    3.10
   5   7  -3   44.70    2.80
  -5  -7  -3   30.40    6.10
   5   7   3   36.50    2.90
  -5  -7   3   37.60    4.40
   5  -7  -3   40.20    3.00
   5   7   3   35.70    2.50
   5  -7  -3   37.10    2.60
  -5   7  -3   34.30    3.30
  -5  -7   3   32.90    3.10
   5   7   3   33.10    2.40
   5   7   3   34.20    2.60
   5   7   3   33.80    2.40
   5  -7  -3   38.80    2.80
  -5  -7   3   37.20    6.90
  -5   7  -3   35.70    3.60
   5  -7  -3   39.00    2.90
  -5  -7   3   37.40    4.50
   5  -7  -3   40.10    2.70
  -5  -7   3   33.10    3.50
  -5   0   4  241.48   14.00
   5   0   4  247.28   13.70
   5   0   4  239.18   13.80
  -5   0   4  247.88   13.80
  -5   0   4  248.78   13.90
   5   0   4  250.07   14.40
  -5   0   4  243.08   13.60
   5   0   4  240.08   13.90
  -5   0   4  230.38   15.60
  -5   0   4  248.68   14.50
  -5   0   4  248.28   15.70
   5   0   4  242.28   13.90
  -5   0   4  258.37   13.50
  -5   0   4  241.58   13.60
   5   0   4  247.18   13.70
  -5   0   4  254.07   14.00
  -5   0   4  236.18   16.90
   5   0   4  243.08   14.20
   5   0   4  251.77   15.10
  -5   0   4  237.18   14.40
  -5   0  -4  231.18   15.30
  -5   0   4  262.47   16.50
   5   0   4  231.58   13.60
   5   0   4  236.08   13.60
  -5   0   4  224.08   16.10
   5   0  -4  255.77   14.10
   5   0   4  244.38   13.70
   5   0   4  246.38   13.70
  -5   0   4  247.38   13.60
  -5   0   4  259.67   17.30
  -5   0   4  207.78   15.80
  -5   0   4  235.28   16.40
  -5   0   4  240.38   13.70
  -5   0   4  238.88   13.90
   5   0   4  250.07   14.40
  -5   0   4  231.98   15.40
  -5   0   4  246.58   15.00
  -5   0   4  245.28   15.20
   5   0   4  215.78   13.70
   5   0   4  229.28   14.10
   5   0   4  236.58   13.70
  -5   0   4  230.88   18.70
   5   0  -4  214.18   13.30
  -5   0   4  251.07   15.60
   5   0   4  235.08   14.20
   5   0   4  229.08   13.80
   5   0   4  230.88   13.70
   5   0   4  254.37   14.20
  -5   0   4  248.28   14.60
   5   0   4  248.18   14.10
  -5   1   4  149.69    8.90
  -5  -1  -4  181.78   11.60
  -5   1   4  112.49   11.80
  -5   1   4  152.88    9.00
  -5   1   4  141.69   10.70
  -5   1   4  154.08    8.80
  -5   1   4  150.48   10.40
   5  -1   4  147.69    9.00
  -5   1   4  149.99    8.70
   5  -1   4  128.19    9.30
   5  -1   4  146.99    8.90
  -5   1   4  143.89   11.20
  -5   1   4  160.48   11.40
  -5   1   4  149.19    9.10
  -5   1   4  150.08    8.90
  -5   1   4  148.49    8.60
   5  -1   4  161.98    9.20
  -5   1   4  157.78    9.50
   5  -1   4  130.29    8.90
  -5   1   4  149.19    8.70
   5  -1   4  147.39    9.00
   5  -1   4  147.99    8.90
   5  -1   4  164.88   11.40
  -5   1   4  161.28   12.10
   5  -1   4  150.28    8.90
  -5   1   4  140.79   12.20
   5  -1   4  144.79    9.30
  -5   1   4  159.68   11.40
  -5   1   4  153.38    8.60
  -5   1   4  145.99    9.00
   5  -1   4  146.99    8.80
  -5   1   4  131.39   11.00
   5  -1   4  146.69    9.10
   5   1  -4  149.99    9.10
  -5   1   4  107.99   13.60
   5  -1   4  139.29    8.90
  -5   1   4  144.89    9.40
   5  -1   4  149.99    9.40
  -5   1   4  132.19   10.70
   5  -1   4  145.69    8.90
  -5   1   4  156.78    9.60
  -5   1   4  136.39   10.20
  -5   1   4  143.29   10.10
   5  -1   4  147.99    9.50
  -5   1   4  147.19    8.70
   5  -1   4  150.88   10.30
  -5  -1   4  133.69    9.60
  -5  -1   4  149.29    9.80
  -5  -1   4  147.39    9.20
   5  -1  -4  140.29    8.60
  -5   1  -4  146.49   10.60
   5   1   4  153.78    9.00
  -5  -1   4  162.78    9.20
  -5  -1   4  151.88   11.50
  -5  -1   4  160.68   10.50
  -5  -1   4  154.08    8.70
   5  -1  -4  132.09    8.50
   5   1   4  160.38    8.60
  -5  -1   4  153.78   10.40
   5   1   4  149.39    8.70
   5   1   4  147.29    9.10
  -5  -1   4  146.69    8.90
   5   1   4  147.99    8.70
  -5  -1   4  120.09   11.00
  -5  -1   4  160.48   11.60
  -5  -1   4  144.29   11.30
  -5  -1   4  155.58   12.40
  -5  -1   4  133.79   12.60
   5   1   4  145.69    8.90
  -5  -1   4  140.09   10.70
   5   1   4  140.29    8.70
  -5  -1   4  156.08    9.80
  -5  -1   4  147.99   10.60
   5   1   4  147.99    9.00
  -5  -1   4  132.39   11.10
   5   1   4  149.88    8.90
  -5  -1   4  158.68    9.10
   5   1   4  148.89    9.90
  -5  -1   4  154.18    9.20
   5   1   4  145.29    8.80
   5   1   4  150.68    8.70
   5  -1  -4  128.79    8.60
  -5  -1   4  155.58   10.00
  -5  -1   4  152.08    8.80
   5   1   4  138.29    9.20
   5   1   4  143.69    9.30
   5   1   4  145.69    8.60
   5   1   4  147.79    8.60
  -5  -1   4   98.99   14.30
   5   1   4  141.49    8.80
   5   1   4  150.38    8.90
   5   1   4  150.88    9.10
   5  -1  -4  142.99    8.20
  -5  -1   4  144.89   10.70
   5   1   4  148.39    9.00
  -5  -1   4  145.89   10.90
  -5  -1   4  170.58    9.00
  -5   2   4  251.17   14.40
  -5   2   4  236.38   13.80
  -5   2   4  258.27   13.90
   5  -2   4  225.08   14.60
  -5   2   4  251.77   14.20
  -5   2   4  227.58   16.20
  -5   2   4  216.88   16.80
  -5   2   4  224.48   16.90
   5  -2   4  251.07   15.00
  -5   2   4  252.27   16.00
   5  -2   4  255.27   14.70
  -5   2   4  258.47   14.00
  -5   2   4  251.67   14.10
  -5   2   4  256.67   14.80
   5  -2   4  259.07   14.50
   5   2  -4  284.27   14.70
  -5   2   4  252.07   13.90
   5  -2   4  251.47   14.60
  -5   2   4  252.17   14.80
  -5   2   4  240.08   15.70
   5  -2   4  253.57   14.50
  -5   2   4  264.27   14.10
   5  -2   4  248.38   14.50
  -5   2   4  266.07   14.90
   5  -2   4  282.87   15.40
  -5   2   4  250.47   14.50
  -5   2   4  250.87   16.10
   5  -2   4  235.88   15.90
   5  -2   4  262.37   14.20
  -5   2   4  259.47   14.40
   5  -2   4  242.68   14.50
  -5   2   4  257.77   14.50
  -5   2   4  219.98   16.70
   5  -2   4  266.27   14.60
   5  -2   4  214.88   14.90
  -5   2   4  240.98   16.40
   5  -2   4  271.27   17.00
  -5  -2  -4  259.37   16.90
   5  -2   4  236.08   14.40
  -5   2   4  246.28   14.30
  -5   2   4  255.27   16.90
   5  -2   4  253.47   15.00
  -5   2   4  245.48   14.20
  -5   2   4  263.17   17.60
   5  -2   4  240.18   14.50
   5  -2  -4  224.58   14.10
  -5   2  -4  249.88   16.20
   5   2   4  229.88   14.20
   5   2   4  251.47   14.40
   5   2   4  244.98   14.80
   5   2   4  250.87   14.10
   5   2   4  242.78   13.90
   5  -2  -4  226.08   13.90
   5   2   4  250.97   13.80
   5   2   4  228.28   14.20
   5   2   4  232.68   14.30
   5   2   4  256.97   14.00
   5   2   4  248.88   14.60
   5   2   4  238.38   14.60
  -5   2  -4  257.57   14.80
   5   2   4  244.28   14.10
   5   2   4  234.58   14.10
   5   2   4  262.07   14.10
   5   2   4  248.38   14.20
   5   2   4  236.98   13.80
  -5  -2   4  295.07   18.50
   5   2   4  255.47   15.50
   5   2   4  249.38   14.00
  -5  -2   4  258.27   28.10
   5   2   4  248.98   14.00
   5   2   4  264.77   14.50
   5  -2  -4  248.98   14.10
   5  -3   4  174.08    9.90
   5  -3   4  194.78   14.80
   5  -3   4  171.28   10.90
   5  -3   4  158.18   10.30
   5   3  -4  167.18   10.20
   5  -3   4  163.78   10.10
  -5  -3  -4  163.38   12.80
   5  -3   4  166.78   10.60
  -5   3   4  166.28   10.20
  -5   3   4  168.48    9.80
  -5   3   4  172.08    9.70
  -5   3   4  166.88   10.10
  -5   3   4  152.88   11.20
   5  -3   4  167.18   10.50
  -5   3   4  166.78    9.60
   5  -3   4  175.68   12.60
   5  -3   4  157.48   10.20
   5  -3   4  162.08   10.40
  -5   3   4  161.48   12.40
  -5   3   4  178.48   12.30
  -5   3   4  167.18    9.80
  -5   3   4  168.38   12.00
   5  -3   4  150.08   10.30
  -5   3   4  161.28    9.70
  -5   3   4  171.88   12.70
  -5   3   4  161.18   10.40
  -5   3   4  126.69   12.40
   5  -3   4  164.58   10.40
  -5   3   4  166.18   10.40
   5  -3   4  156.58   10.40
  -5   3   4  163.18   10.10
   5  -3   4  158.58   10.20
   5  -3   4  176.98   10.90
  -5   3   4  162.08    9.90
  -5  -3  -4  183.58   13.90
  -5   3   4  167.18    9.60
  -5   3   4  178.08   13.20
  -5   3   4  158.78    9.50
   5  -3   4  164.48   10.80
  -5   3   4  165.48   10.00
  -5   3   4  165.88   10.40
  -5  -3  -4  212.78   21.00
  -5   3   4  160.38    9.50
   5  -3   4  165.68   10.40
  -5   3   4  166.58    9.60
  -5  -3   4  168.68   10.30
   5   3   4  161.68   10.10
  -5  -3   4  169.28   11.10
  -5  -3   4  162.88   11.70
  -5  -3   4  165.68   10.20
   5   3   4  162.68    9.50
   5   3   4  158.48    9.70
  -5  -3   4  167.18   14.60
  -5  -3   4  157.08   11.90
   5   3   4  176.58    9.70
   5   3   4  167.58    9.70
  -5  -3   4  159.18   14.40
   5   3   4  166.08    9.40
   5   3   4  174.38   10.80
  -5  -3   4  161.88   15.40
  -5  -3   4  170.38   12.30
   5   3   4  165.58    9.80
  -5  -3   4  154.98   15.40
   5   3   4  165.18    9.80
  -5  -3   4  162.78   10.60
   5  -3  -4  175.08    9.90
  -5  -3   4  162.18   12.10
  -5  -3   4  165.18   13.80
   5   3   4  155.78   10.30
  -5  -3   4  162.08   11.40
  -5  -3   4  164.88   13.00
  -5  -3   4  163.08    9.80
   5   3   4  153.68    9.80
  -5  -3   4  170.18   14.00
  -5   3  -4  167.48   12.10
  -5  -3   4  160.18   20.10
   5   3   4  171.38    9.90
   5   3   4  158.08    9.90
   5   3   4  169.08    9.60
   5   3   4  175.18    9.80
   5   3   4  163.68    9.50
  -5  -3   4  165.28   11.50
  -5  -3   4  172.08   11.70
  -5  -3   4  164.88   10.30
  -5  -3   4  171.08   10.50
  -5  -3   4  157.78   11.90
   5   3   4  172.58   10.20
   5   3   4  171.78   10.00
   5   3   4  169.58   10.00
  -5   4   4    9.00    1.30
   5  -4   4    8.90    2.40
  -5   4   4    5.90    1.20
   5  -4   4   10.60    2.30
  -5   4   4    9.90    3.30
  -5   4   4   11.60    1.60
   5  -4   4   10.80    2.10
  -5   4   4    9.30    1.50
  -5   4   4    6.90    2.00
   5   4  -4   10.80    1.90
   5  -4   4    8.00    1.80
  -5   4   4    8.90    3.00
   5  -4   4   11.50    2.50
  -5  -4  -4   10.20    3.90
  -5   4   4    9.70    1.90
   5  -4   4    9.20    2.10
  -5   4   4    9.50    1.90
   5  -4   4   10.40    2.00
   5  -4   4   11.80    2.30
   5  -4   4    8.40    1.80
   5  -4   4    6.30    1.50
  -5   4   4    8.00    2.80
   5  -4   4   11.70    1.80
  -5   4   4   11.30    2.20
  -5   4   4    9.00    1.50
   5  -4   4    9.50    2.70
   5  -4   4    9.20    1.80
   5  -4   4    7.60    2.00
  -5   4   4   13.00    3.20
   5  -4   4   12.20    2.20
  -5   4   4    6.20    1.70
  -5   4   4    7.70    1.60
   5  -4   4    7.90    1.70
  -5   4   4    9.50    1.80
  -5   4   4    8.30    1.60
   5  -4   4    9.80    3.70
  -5   4   4    6.00    1.30
  -5   4   4    6.60    1.60
  -5   4   4   11.70    3.40
  -5  -4   4    7.40    3.80
  -5  -4   4   11.80    3.00
  -5  -4   4    8.00    2.10
   5  -4  -4   10.20    1.70
  -5  -4   4   10.40    3.50
  -5  -4   4    6.00    2.30
  -5  -4   4    8.50    2.00
   5   4   4    9.80    1.50
  -5  -4   4    9.50    6.20
  -5  -4   4    6.40    2.70
   5   4   4   11.30    1.50
  -5  -4   4    7.30    4.10
   5   4   4    9.60    1.60
   5   4   4   12.00    1.50
  -5  -4   4    7.70    3.60
  -5  -4   4   10.40    4.50
   5   4   4    9.60    1.50
  -5  -4   4    7.40    2.30
   5   4   4    8.80    1.30
   5   4   4   12.00    1.60
  -5   4  -4    9.90    2.30
   5   4   4    8.70    1.80
  -5   4  -4    8.60    3.20
   5   4   4    8.90    1.70
   5   4   4    8.90    1.20
  -5  -4   4   12.10    4.30
   5   4   4    8.40    1.60
   5   4   4   11.90    2.50
  -5  -4   4    9.60    4.60
   5   4   4    8.30    1.50
   5   4   4   12.90    1.70
  -5  -4   4   14.10    3.20
  -5  -4   4    7.60    1.80
  -5  -4   4    7.70    3.60
   5   4   4    9.20    1.50
  -5  -4   4    8.60    2.90
   5  -4  -4   10.20    1.70
   5   4   4   11.10    2.10
  -5  -4   4    9.40    2.70
   5   4   4   13.00    1.70
   5  -5   4  159.58    9.60
   5  -5   4  171.68    9.70
   5   5  -4  154.48    8.90
   5  -5   4  157.78    9.70
   5  -5   4  165.38   10.00
  -5   5   4  147.39    9.10
   5   5  -4  160.78    9.00
  -5   5   4  160.28   10.90
  -5   5   4  152.28    8.90
   5  -5   4  160.18    9.60
   5   5  -4  154.68    8.90
  -5   5   4  142.09   11.20
   5   5  -4  145.99    9.40
   5  -5   4  163.68   11.50
   5  -5   4  148.39    9.30
  -5  -5  -4  142.69   11.80
  -5   5   4  148.79    9.50
  -5  -5  -4  137.09   18.00
  -5   5   4  152.68    8.80
   5  -5   4  153.38    9.60
   5  -5   4  166.08   10.60
  -5   5   4  139.19    8.70
   5  -5   4  156.98   10.00
  -5   5   4  165.38   11.90
  -5   5   4  136.39   11.70
  -5   5   4  159.48    9.50
  -5   5   4  125.59   10.10
  -5   5   4  139.39    9.10
  -5  -5  -4  150.58   12.20
  -5   5   4  146.49    8.90
  -5   5   4  148.89    9.10
   5  -5   4  177.18    9.40
   5  -5   4  167.38    9.40
   5  -5  -4  173.08    9.30
  -5  -5   4  155.98   16.20
  -5  -5   4  153.68   12.00
  -5  -5   4  149.99   12.30
   5  -5  -4  175.68    9.40
   5   5   4  153.38    8.70
   5   5   4  149.88    9.20
   5  -5  -4  158.48    9.10
  -5  -5   4  138.99    9.60
  -5  -5   4  144.59    9.90
  -5  -5   4  164.58   12.50
   5   5   4  152.38    8.90
   5   5   4  155.38    9.10
   5   5   4  152.78    9.10
   5   5   4  158.88    9.00
  -5  -5   4  146.79   12.20
   5   5   4  156.18    9.00
  -5  -5   4  146.59   12.40
   5   5   4  149.59    9.40
   5   5   4  148.49    8.80
   5   5   4  149.99    8.70
  -5   5  -4  158.88    9.90
   5  -5  -4  155.68    9.20
   5   5   4  153.38    8.70
   5   5   4  133.39    9.10
   5  -5  -4  175.08    9.20
   5   5   4  142.19   10.40
  -5  -5   4  151.88   11.70
   5   5   4  163.18    9.80
  -5  -5   4  134.39    9.60
  -5   5  -4  147.79   11.30
   5   5   4  145.59    9.40
   5   5   4  145.69    8.60
  -5  -5   4  159.58   10.60
   5  -6   4    0.10    1.40
  -5  -6  -4    1.30    2.50
   5  -6   4    0.40    1.00
   5   6  -4    0.00    0.70
  -5   6   4    0.90    1.60
  -5   6   4    1.60    1.70
  -5  -6  -4   -0.20    5.40
  -5  -6  -4    0.60    3.30
  -5   6   4    0.60    0.70
   5  -6   4    0.10    1.00
   5  -6   4    1.20    0.80
  -5   6   4    0.70    1.00
   5   6  -4   -0.10    0.70
  -5   6   4    0.00    0.70
   5  -6   4    0.30    1.00
   5  -6   4   -0.10    0.90
   5  -6   4   -0.20    1.10
   5   6   4    0.20    0.70
  -5  -6   4    0.40    1.90
  -5  -6   4   -1.40    2.20
  -5   6  -4    1.40    1.60
   5   6   4   -0.20    0.60
   5   6   4    0.20    0.50
  -5  -6   4    1.20    3.40
   5   6   4    0.30    0.70
  -5   6  -4    0.90    1.30
  -5   6  -4   -0.80    1.60
   5  -6  -4   -0.30    0.60
   5  -6  -4    0.00    0.70
   5   6   4   -0.20    0.50
   5   6   4    0.60    0.80
   5   6   4    0.30    0.60
  -5  -6   4    0.20    2.10
   5  -6  -4   -0.10    0.80
  -5  -6   4   -0.40    2.40
  -5  -6   4    0.30    1.30
  -5  -6   4   -0.60    2.10
   5  -6  -4    0.70    0.90
   5  -6  -4   -0.50    0.80
   5  -7   4    0.40    0.80
  -5  -7  -4   -0.90    1.60
   5   7  -4   -0.10    0.50
   5  -7   4    0.30    0.60
  -5  -7  -4    0.40    2.10
  -5   7   4    0.20    0.50
  -5  -7   4   -0.10    1.60
   5   7   4    0.70    0.50
   5   0   5    2.30    0.90
  -5   0   5   -1.60    1.20
   5   0   5    2.00    1.10
  -5   0   5   -2.50    3.70
   5   0   5    0.80    0.80
   5   0   5    1.90    1.10
  -5   0   5   -0.30    0.70
   5   0   5    1.10    0.80
  -5   0   5    0.50    1.80
  -5   0   5    0.20    2.10
  -5   0   5    1.10    1.00
  -5   0   5    1.40    1.10
   5   0   5    1.80    0.80
   5   0   5    1.10    0.90
  -5   0   5   -0.50    1.00
  -5   0   5   -1.10    1.10
  -5   0   5   -1.50    3.20
   5   0   5    0.60    0.90
  -5   0   5   -0.60    0.90
  -5   0   5   -0.30    0.90
   5   0   5    4.40    1.30
   5   0   5    1.90    1.00
   5   0   5    1.10    0.80
  -5   0   5   -1.60    1.90
   5   0   5   -0.60    0.80
   5   0   5    0.50    0.90
  -5   0   5    3.90    2.70
   5   0   5    0.40    1.00
  -5   0   5    0.10    1.80
   5   0   5    0.70    1.00
  -5   0   5    0.50    1.10
  -5   0   5   12.70    3.50
  -5   0   5    0.10    0.80
   5   0  -5   -0.30    0.90
  -5   0   5    0.90    3.30
  -5   0   5   -1.00    3.60
  -5   0   5   -0.80    0.80
  -5   0   5   -0.50    1.90
   5   0   5    1.20    0.80
  -5   0   5   -0.30    1.30
  -5   0   5    0.70    1.40
   5   0   5    3.80    1.10
  -5   0   5   -0.10    1.10
  -5   1   5 1081.19   64.39
  -5   1   5 1215.78   62.59
  -5   1   5 1209.08   62.29
  -5   1   5 1107.69   65.69
   5  -1   5 1167.78   62.79
  -5   1   5 1128.99   63.19
  -5   1   5 1172.68   62.89
  -5   1   5 1099.49   65.09
   5  -1   5 1076.59   62.79
  -5   1   5 1154.68   62.69
  -5   1   5 1197.38   64.79
   5  -1   5 1176.18   63.19
  -5   1   5 1174.48   62.59
   5  -1   5 1201.48   63.39
  -5   1   5 1181.58   62.79
  -5   1   5 1181.68   62.29
   5  -1   5 1217.48   63.19
  -5   1   5 1194.98   62.49
   5  -1   5 1212.48   62.79
   5  -1   5 1204.78   62.89
   5  -1   5 1272.77   62.89
  -5   1   5 1193.28   62.69
   5  -1   5 1144.59   62.79
  -5  -1  -5 1287.97   65.49
  -5   1   5 1201.98   63.29
  -5   1   5 1183.28   66.69
   5  -1   5 1267.67   62.59
  -5   1   5 1219.78   63.39
  -5   1   5 1115.19   65.59
  -5   1   5 1202.18   62.29
  -5   1   5 1177.78   65.69
   5  -1   5 1149.48   62.69
   5  -1   5 1200.38   62.89
   5   1  -5 1199.88   62.99
  -5   1   5 1176.28   62.39
   5  -1   5 1249.18   62.89
  -5   1   5 1211.18   64.59
  -5  -1   5 1232.18   62.69
  -5  -1   5 1142.69   66.99
   5   1   5 1137.49   62.39
  -5  -1   5 1232.88   62.39
  -5  -1   5 1171.78   63.89
  -5  -1   5 1102.09   64.59
   5   1   5 1169.38   62.39
  -5  -1   5 1086.09   64.99
  -5  -1   5 1013.10   63.29
   5   1   5 1192.08   63.09
   5   1   5 1205.58   62.49
  -5  -1   5 1177.68   62.89
   5   1   5 1221.38   62.69
   5   1   5 1183.08   63.09
  -5  -1   5 1183.28   62.59
  -5  -1   5 1182.58   62.89
  -5  -1   5 1213.58   64.59
  -5  -1   5 1080.69   64.79
  -5  -1   5 1181.28   64.59
   5   1   5 1171.78   62.39
   5  -1  -5 1075.29   62.19
   5   1   5 1149.48   62.49
  -5  -1   5 1196.78   62.69
  -5  -1   5 1211.68   62.49
  -5  -1   5  978.50   65.29
  -5  -1   5 1030.20   67.59
   5   1   5 1266.57   62.39
   5   1   5 1215.08   62.39
  -5  -1   5 1233.68   62.99
   5   1   5 1153.38   62.79
  -5   1  -5 1095.19   64.39
   5   1   5 1145.89   62.59
  -5  -1   5 1259.67   66.29
  -5  -1   5 1130.69   65.59
   5   1   5 1211.48   62.89
   5   1   5 1190.98   62.79
  -5  -1   5 1123.49   64.99
  -5  -1   5 1239.98   63.79
   5   1   5 1162.78   62.69
  -5  -1   5 1191.48   63.49
   5   1   5 1186.18   62.59
  -5   2   5   33.30    2.70
   5  -2   5   28.90    3.20
  -5  -2  -5   24.40    5.00
  -5   2   5   26.40    5.20
  -5   2   5   29.60    2.80
  -5   2   5   30.50    3.00
  -5   2   5   30.30    4.80
  -5   2   5   31.60    3.30
  -5   2   5   30.30    2.50
   5  -2   5   29.80    3.20
  -5   2   5   29.20    5.00
  -5   2   5   12.40    4.60
  -5   2   5   28.30    2.50
   5  -2   5   33.10    3.20
   5  -2   5   31.50    3.40
   5  -2   5   37.90    5.10
  -5   2   5   26.30    3.80
  -5   2   5   29.00    3.10
   5   2  -5   28.60    2.90
   5  -2   5   30.70    3.00
  -5   2   5   27.60    2.70
   5  -2   5   38.90    3.60
  -5   2   5   32.70    5.30
   5  -2   5   31.20    3.00
  -5   2   5   28.90    2.50
  -5   2   5   30.80    2.90
   5  -2   5   28.50    3.30
   5  -2   5   30.80    3.10
   5  -2   5   37.40    3.30
   5  -2   5   28.60    3.10
  -5   2   5   28.50    2.50
   5  -2   5   35.60    3.70
   5  -2   5   30.60    2.70
  -5   2   5   28.50    2.80
  -5   2   5   31.30    3.00
  -5   2   5   29.80    3.30
  -5   2   5   26.00    5.10
  -5   2   5   29.40    3.20
  -5  -2   5   28.70    3.40
   5  -2  -5   26.40    2.80
  -5  -2   5   28.00    2.80
   5   2   5   33.50    3.00
  -5  -2   5   23.40    3.50
  -5  -2   5   31.80    3.90
  -5  -2   5   31.70    4.50
  -5  -2   5   29.50    4.90
   5   2   5   28.10    2.80
  -5  -2   5   26.80    4.20
  -5  -2   5   30.30    3.20
   5   2   5   31.30    2.50
   5  -2  -5   28.20    2.60
   5   2   5   29.10    2.50
   5   2   5   30.20    2.60
  -5  -2   5   23.60    4.60
   5   2   5   28.10    2.50
  -5  -2   5   34.60    4.50
  -5  -2   5   27.00    3.10
  -5  -2   5   29.00    3.10
  -5  -2   5   32.30    5.20
   5  -2  -5   28.70    2.60
   5   2   5   30.40    2.60
  -5  -2   5   31.60    8.80
  -5  -2   5   26.80    5.40
  -5   2  -5   31.90    4.70
   5   2   5   29.50    2.70
   5   2   5   28.10    3.10
  -5  -2   5   28.10    4.70
  -5  -2   5   30.50    3.00
   5   2   5   28.30    2.60
   5   2   5   33.00    2.50
  -5  -2   5   30.10    2.90
  -5  -2   5   25.90    4.40
   5   2   5   29.30    3.00
   5   2   5   31.10    2.70
   5   2   5   29.50    2.70
  -5  -2   5   18.20    6.90
  -5  -2   5   22.40    6.80
  -5  -2   5   30.40    5.50
  -5  -2   5   27.90    3.30
   5   2   5   21.30    3.20
   5   2   5   28.90    2.70
   5   2   5   27.80    3.10
  -5   3   5  415.26   22.20
   5   3  -5  401.36   22.60
   5  -3   5  411.86   22.90
   5  -3   5  412.46   23.00
  -5   3   5  383.96   25.80
  -5   3   5  414.66   22.60
  -5   3   5  400.26   22.00
   5  -3   5  450.25   23.50
  -5   3   5  411.16   22.90
  -5   3   5  409.76   25.30
  -5  -3  -5  408.06   25.50
   5  -3   5  425.76   22.70
  -5   3   5  397.66   22.60
  -5   3   5  406.56   22.00
  -5   3   5  402.66   22.20
  -5   3   5  368.56   25.60
  -5   3   5  385.06   22.80
  -5   3   5  411.36   22.00
   5  -3   5  331.97   22.90
  -5   3   5  375.36   22.70
  -5   3   5  365.26   23.90
  -5   3   5  401.96   22.50
  -5   3   5  420.96   22.50
   5  -3   5  440.26   22.40
   5  -3   5  409.66   23.20
   5  -3   5  433.46   25.20
  -5   3   5  413.56   22.30
   5  -3   5  398.66   23.20
   5  -3   5  413.26   22.80
  -5   3   5  402.86   22.30
  -5   3   5  415.36   25.70
   5  -3   5  363.16   22.70
   5  -3   5  409.16   22.80
  -5   3   5  411.16   23.00
  -5   3   5  400.76   22.00
  -5  -3   5  395.16   22.70
  -5  -3   5  403.16   27.50
  -5  -3   5  411.36   22.30
   5   3   5  408.66   22.50
   5   3   5  416.36   22.30
   5  -3  -5  425.56   22.40
   5   3   5  424.26   22.90
  -5  -3   5  414.26   26.00
   5   3   5  410.56   21.90
   5   3   5  400.96   22.80
   5   3   5  412.56   22.30
   5   3   5  405.86   22.20
  -5  -3   5  428.46   24.40
   5   3   5  412.76   22.10
  -5  -3   5  427.86   27.10
  -5  -3   5  409.16   22.70
   5   3   5  385.76   21.90
  -5  -3   5  391.16   24.40
   5   3   5  399.46   22.20
  -5  -3   5  379.06   22.40
   5   3   5  405.96   22.00
  -5  -3   5  412.26   23.70
  -5  -3   5  418.96   24.00
  -5  -3   5  363.16   34.50
  -5  -3   5  380.46   22.90
  -5  -3   5  388.16   22.80
   5   3   5  403.16   22.10
  -5  -3   5  388.16   23.80
   5   3   5  416.16   22.00
   5   3   5  391.56   22.60
   5   3   5  433.76   22.50
   5   3   5  397.86   22.30
  -5   3  -5  406.36   24.60
  -5  -3   5  392.46   24.20
  -5  -3   5  403.86   24.20
  -5  -3   5  392.56   24.50
   5   3   5  427.76   22.60
  -5  -3   5  394.16   28.30
  -5  -3   5  392.16   24.80
  -5  -3   5  386.56   26.80
  -5  -3   5  400.66   27.70
   5  -4   5   48.50    4.20
   5  -4   5   37.30    3.50
   5  -4   5   38.80    3.30
  -5   4   5   38.40    2.90
  -5   4   5   30.10    3.90
  -5   4   5   35.10    3.20
  -5   4   5   33.80    2.70
  -5   4   5   30.80    5.00
  -5   4   5   38.20    3.00
   5  -4   5   39.30    3.80
  -5   4   5   34.50    2.70
  -5   4   5   36.00    2.80
  -5   4   5   35.40    3.30
   5  -4   5   38.90    3.00
  -5   4   5   35.70    3.50
  -5   4   5   37.10    3.70
   5   4  -5   35.00    3.20
   5  -4   5   39.40    5.10
  -5   4   5   31.80    5.00
   5  -4   5   38.60    3.60
   5  -4   5   35.10    3.80
   5  -4   5   40.30    3.60
  -5   4   5   32.20    2.90
  -5  -4  -5   24.90    4.80
  -5   4   5   39.50    3.40
   5  -4   5   36.50    3.70
   5  -4   5   38.60    3.50
  -5   4   5   34.80    5.90
  -5   4   5   31.00    3.40
   5  -4   5   38.10    3.90
  -5   4   5   35.30    3.00
  -5   4   5   37.20    3.40
  -5   4   5   36.00    5.20
  -5   4   5   33.70    2.80
  -5   4   5   39.80    3.20
  -5   4  -5   40.40    3.90
  -5  -4   5   33.50    4.30
  -5  -4   5   32.60    3.20
   5   4   5   37.70    3.10
  -5  -4   5   34.20    6.30
   5   4   5   34.30    3.00
  -5  -4   5   36.70    6.80
   5   4   5   36.20    2.90
  -5  -4   5   31.80    4.60
  -5  -4   5   37.90    7.10
  -5   4  -5   36.80    5.10
  -5  -4   5   33.90    3.70
   5   4   5   31.50    3.90
  -5  -4   5   36.30    4.80
   5   4   5   38.80    3.00
   5   4   5   35.80    3.50
  -5  -4   5   32.20    5.30
  -5  -4   5   31.90    9.20
   5  -4  -5   39.70    3.30
   5   4   5   42.70    2.90
  -5  -4   5   34.20    4.60
   5   4   5   39.00    2.80
   5   4   5   37.10    2.60
   5   4   5   39.10    3.20
   5   4   5   36.80    2.70
  -5  -4   5   37.40    6.50
  -5  -4   5   33.60    4.60
   5  -4  -5   40.20    3.20
   5   4   5   37.00    2.90
   5   4   5   36.20    2.70
  -5  -4   5   41.50    4.80
   5   4   5   36.30    3.30
  -5  -4   5   34.30    5.50
  -5  -4   5   30.10    4.70
   5   4   5   39.10    3.00
  -5  -4   5   26.70    5.10
  -5  -4   5   33.20    6.40
  -5  -4   5   41.30    4.30
   5  -4  -5   38.20    3.10
   5   4   5   24.60    3.00
   5   4   5   36.80    3.10
  -5  -4   5   40.10    3.70
  -5  -4   5   35.70    5.10
   5   5  -5  109.79    6.70
  -5   5   5  117.09    6.70
  -5   5   5  101.79    6.80
  -5   5   5   91.49    6.90
   5   5  -5  115.39    6.60
   5  -5   5  117.89    7.30
   5  -5   5  122.39    9.00
   5  -5   5  112.79    7.30
   5  -5   5  113.89    6.70
  -5   5   5  107.29    6.70
  -5   5   5  108.69    9.30
   5  -5   5  122.09    7.40
   5  -5   5  110.39    7.00
  -5  -5  -5  112.79    9.80
   5  -5   5  122.19    7.70
   5   5  -5  110.89    6.60
  -5   5   5  100.39    6.90
   5  -5   5  108.39    7.10
   5  -5   5  112.89    7.60
  -5   5   5  104.59    6.60
  -5   5   5  100.79    6.60
  -5   5   5  105.89    6.50
  -5   5   5  109.39    6.90
   5  -5   5  113.39    7.10
  -5   5   5  104.79    6.90
  -5   5   5  115.69    7.30
  -5   5   5  111.99    9.20
  -5   5   5  104.39    7.10
   5   5   5  115.19    6.90
   5   5   5  107.49    6.30
  -5  -5   5   94.39    7.20
   5  -5  -5  107.89    6.70
   5  -5  -5  117.69    6.40
  -5  -5   5   97.29    6.80
  -5   5  -5  113.89    7.50
  -5  -5   5  120.69    9.80
   5   5   5  117.39    7.50
  -5  -5   5  108.49    9.00
   5  -5  -5  126.69    6.90
   5   5   5  118.49    6.70
   5   5   5  113.79    6.80
   5   5   5  110.69    6.50
   5   5   5  112.09    6.60
   5   5   5  112.79    6.50
   5   5   5  115.59    6.50
  -5  -5   5  101.69   12.50
  -5  -5   5  127.49    8.80
   5   5   5  112.19    6.80
  -5  -5   5  115.99    8.20
  -5  -5   5  107.09    9.50
  -5  -5   5  117.19    8.60
  -5  -5   5  114.89    9.80
   5   5   5  118.29    6.70
   5   5   5  111.79    6.70
   5  -5  -5  123.89    7.10
   5   5   5  116.99    6.80
   5  -6   5   16.50    2.80
  -5   6   5   11.10    1.50
   5  -6   5   14.50    2.00
  -5   6   5   12.20    2.70
   5  -6   5   14.40    1.60
   5   6  -5   14.00    1.60
  -5   6   5   12.60    1.70
   5  -6   5   14.50    1.80
   5  -6   5   14.20    2.10
  -5  -6  -5   11.30    2.90
  -5   6   5   12.60    1.40
  -5  -6  -5    9.70    2.60
  -5   6   5   12.30    1.30
   5  -6   5   15.30    1.80
  -5   6   5   11.70    1.90
   5   6  -5   15.00    1.50
  -5   6   5   12.80    2.70
  -5  -6  -5   13.20    4.40
   5   6  -5   14.10    1.40
  -5  -6  -5   13.00    5.90
  -5   6   5   12.80    1.40
   5  -6   5   12.40    1.80
   5  -6  -5   14.10    1.50
  -5  -6   5   11.10    2.60
  -5  -6   5   12.30    1.80
   5  -6  -5   15.20    1.30
   5   6   5   14.50    1.30
  -5  -6   5    9.80    2.40
   5  -6  -5   18.70    1.70
   5   6   5   13.00    1.40
  -5  -6   5   12.90    2.20
  -5   6  -5   10.40    1.80
  -5  -6   5   13.60    3.10
  -5   6  -5   12.60    2.20
  -5  -6   5   14.60    3.10
   5   6   5   13.70    1.30
   5  -6  -5   18.90    1.60
   5   6   5   13.30    1.50
   5   6   5   14.30    1.70
   5   6   5   13.00    1.20
   5   6   5   14.60    1.40
  -5  -6   5   13.60    4.30
  -5   6  -5   14.50    2.30
  -5   0   6   19.70    4.20
   5   0   6   24.30    2.50
  -5   0   6   23.90    2.50
   5   0   6   25.30    2.40
   5   0   6   27.50    2.60
   5   0   6   25.00    2.50
  -5   0   6   23.00    2.70
   5   0   6   25.00    2.40
   5   0   6   22.80    2.60
  -5   0   6   21.70    4.50
  -5   0   6   18.70    3.80
  -5   0   6   25.00    4.30
  -5   0   6   22.50    2.40
  -5   0   6   22.70    3.10
  -5   0   6   17.90    4.40
   5   0   6   25.20    2.80
   5   0   6   26.20    2.60
  -5   0   6   22.80    2.70
  -5   0   6   23.30    2.70
   5   0   6   24.90    2.50
  -5   0   6   20.70    4.90
  -5   0   6   23.10    6.30
  -5   0   6   10.70    5.80
   5   0   6   29.50    2.80
  -5   0   6   23.40    3.90
  -5   0   6   26.90    3.40
   5   0   6   23.30    2.40
  -5   0   6   25.40    2.40
  -5   0   6   14.30    3.90
  -5   0   6   20.20    2.90
  -5   0   6   26.00    2.70
   5   0   6   25.70    2.60
   5   0  -6   25.40    2.80
  -5   0   6   26.70    2.40
  -5   1   6   -2.20    3.00
   5  -1   6    4.90    1.50
  -5   1   6    0.50    1.90
  -5   1   6   -0.60    1.20
  -5   1   6   -0.10    1.20
   5  -1   6    0.00    0.70
   5  -1   6    0.40    1.00
  -5   1   6    3.00    2.20
   5  -1   6    1.40    1.10
  -5   1   6   -0.30    1.20
   5  -1   6    0.20    0.80
  -5   1   6    0.60    2.10
   5  -1   6   -0.70    0.90
  -5   1   6    3.00    0.90
  -5   1   6    1.00    0.80
  -5   1   6    0.00    0.90
  -5   1   6   -1.90    2.90
   5  -1   6    1.90    1.20
  -5   1   6    0.10    0.90
  -5   1   6    0.40    0.90
   5  -1   6   -1.00    1.10
  -5  -1  -6   -2.00    2.40
  -5   1   6    0.50    1.00
  -5   1   6    0.50    2.60
   5  -1   6    3.00    1.40
   5   1  -6    1.20    1.10
  -5   1   6    0.20    0.70
  -5   1   6    0.80    2.20
  -5   1   6    0.00    1.30
  -5   1   6    0.30    0.90
  -5   1   6    0.40    1.00
   5  -1   6    0.60    0.90
   5  -1   6    2.80    1.10
   5  -1   6    0.00    0.80
  -5   1   6    1.50    1.10
   5  -1   6    3.90    1.30
  -5   1   6   -5.30    4.30
   5   1   6   -0.40    0.90
  -5  -1   6    1.30    1.30
  -5  -1   6    0.50    1.10
  -5  -1   6    0.50    1.50
  -5  -1   6    1.00    1.30
   5   1   6    0.60    1.10
  -5  -1   6    0.30    2.00
  -5  -1   6   -0.20    2.00
   5   1   6    0.40    0.80
  -5  -1   6    2.10    1.10
  -5  -1   6   -0.20    2.30
   5   1   6    0.20    0.70
   5   1   6   -1.80    1.30
  -5  -1   6   -0.60    1.10
  -5  -1   6    1.30    1.00
   5   1   6    0.10    0.70
  -5  -1   6   -4.40    2.90
  -5  -1   6    0.80    1.10
   5   1   6    2.90    1.10
  -5  -1   6   -0.30    1.00
   5   1   6    0.00    0.70
   5   1   6    0.80    0.80
   5   1   6   -0.50    0.90
   5   1   6   -0.80    0.90
  -5  -1   6    1.40    1.30
  -5  -1   6  -10.10    3.40
  -5  -1   6    0.70    1.30
  -5  -1   6    1.90    2.40
   5   1   6   -1.10    1.00
  -5  -1   6    1.30    2.10
  -5  -1   6   -2.60    3.00
  -5  -1   6    1.10    2.40
   5   1   6   -0.20    0.80
   5   1   6    2.60    1.30
  -5  -1   6   -0.70    1.90
  -5  -1   6    2.40    1.00
   5   1   6    0.30    0.60
   5   1   6   -0.10    0.90
  -5   2   6  414.76   23.00
  -5   2   6  429.36   23.60
   5  -2   6  439.26   23.30
  -5   2   6  422.96   22.80
  -5   2   6  408.46   22.80
   5   2  -6  416.96   23.40
  -5   2   6  410.86   26.20
  -5   2   6  428.06   23.00
  -5   2   6  422.46   23.20
  -5   2   6  417.46   22.80
  -5   2   6  443.46   22.80
  -5   2   6  417.16   23.10
   5  -2   6  413.76   23.50
   5  -2   6  413.46   22.90
   5  -2   6  421.46   23.30
  -5   2   6  401.16   25.80
  -5   2   6  425.56   23.80
  -5   2   6  370.76   26.40
  -5   2   6  370.86   24.70
   5  -2   6  430.46   23.40
  -5   2   6  432.26   23.10
  -5   2   6  399.66   26.60
   5  -2   6  443.36   23.70
  -5  -2  -6  418.06   25.90
   5  -2   6  439.26   23.80
   5  -2   6  431.86   23.60
  -5   2   6  394.46   23.50
   5   2   6  423.66   22.90
  -5  -2   6  422.06   23.50
  -5  -2   6  422.36   23.10
   5   2   6  420.86   23.50
  -5  -2   6  419.66   23.30
  -5  -2   6  389.96   25.40
   5   2   6  423.46   22.80
  -5  -2   6  421.36   23.40
   5   2   6  445.56   23.50
   5   2   6  421.76   23.00
   5  -2  -6  390.16   22.30
  -5   2  -6  377.96   24.80
   5   2   6  432.96   23.30
  -5  -2   6  416.66   25.80
   5   2   6  451.55   22.80
   5   2   6  432.66   22.80
   5   2   6  428.26   23.10
  -5  -2   6  395.36   24.60
   5   2   6  363.16   23.60
  -5  -2   6  396.46   25.60
  -5  -2   6  421.56   24.40
  -5  -2   6  407.16   26.40
   5   2   6  447.66   23.20
   5   2   6  431.76   22.90
  -5  -2   6  430.26   25.00
  -5  -2   6  418.56   25.40
  -5  -2   6  413.96   22.90
  -5  -2   6  381.76   23.30
   5   2   6  409.16   22.90
   5   2   6  442.56   22.80
  -5  -2   6  418.66   24.30
   5   2   6  437.66   22.90
  -5  -2   6  415.86   23.30
   5  -2  -6  402.16   22.80
  -5  -2   6  396.36   24.90
   5  -3   6   43.70    3.90
   5  -3   6   46.70    3.90
  -5   3   6   44.20    3.50
   5  -3   6   46.60    3.90
  -5   3   6   44.90    3.50
  -5   3   6   46.20    3.60
  -5   3   6   42.20    3.30
   5  -3   6   43.60    3.80
  -5   3   6   37.90    4.50
   5  -3   6   46.80    3.40
  -5   3   6   33.90    5.70
  -5   3   6   43.80    3.40
  -5   3   6   41.50    3.80
   5   3  -6   43.60    3.70
  -5   3   6   45.70    3.90
  -5   3   6   46.50    3.20
  -5   3   6   45.40    3.20
  -5   3   6   42.50    5.80
   5  -3   6   35.40    4.10
  -5   3   6   43.20    3.20
  -5   3   6   43.70    5.80
   5  -3   6   42.50    3.70
  -5   3   6   45.10    3.40
   5  -3   6   45.70    3.60
   5  -3   6   46.50    4.20
  -5   3   6   44.60    4.30
  -5   3   6   32.60    7.00
  -5   3   6   44.50    4.00
   5  -3   6   52.69    5.60
  -5   3   6   43.00    3.20
  -5  -3   6   43.00    5.50
  -5  -3   6   42.60    4.70
  -5  -3   6   43.20    3.80
   5   3   6   49.50    3.70
   5   3   6   46.00    3.40
  -5  -3   6   46.40    4.90
  -5  -3   6   44.40    5.60
  -5  -3   6   40.40    3.50
   5   3   6   45.80    3.30
   5   3   6   45.80    3.80
  -5  -3   6   45.70    5.10
  -5  -3   6   46.50    4.10
   5   3   6   48.60    3.80
  -5  -3   6   39.60    6.00
   5   3   6   44.90    3.20
  -5  -3   6   36.10    4.90
  -5  -3   6   41.60    4.00
  -5  -3   6   40.10    5.40
   5   3   6   45.50    3.20
  -5  -3   6   40.90    3.50
   5   3   6   39.60    3.90
   5   3   6   46.40    3.60
   5   3   6   46.50    3.40
   5  -3  -6   46.40    3.40
   5  -3  -6   43.10    3.40
  -5  -3   6   35.30    6.30
  -5  -3   6   38.90    4.50
  -5  -3   6   41.90    5.60
   5   3   6   44.60    3.10
  -5  -3   6   33.40    6.80
   5   3   6   43.90    3.00
  -5   3  -6   36.80    5.30
  -5  -3   6   31.60    6.80
   5   3   6   45.00    3.20
  -5  -3   6   32.20   11.40
   5  -3  -6   44.90    3.30
   5   3   6   43.60    3.20
  -5  -3   6   42.20    7.70
  -5  -3   6   31.10    6.50
  -5  -3   6   40.90    3.90
   5  -4   6   -0.50    1.00
  -5   4   6   -0.40    1.30
   5  -4   6    0.70    1.20
   5   4  -6   -0.50    0.70
  -5   4   6   -0.30    0.90
   5  -4   6   -1.60    1.30
  -5   4   6    1.40    0.80
  -5   4   6    0.40    0.80
  -5   4   6    1.20    0.80
  -5   4   6    0.90    1.00
  -5   4   6    0.10    0.60
  -5   4   6    4.50    2.40
   5  -4   6   -1.20    0.90
   5  -4   6   -0.50    0.90
   5  -4   6    1.10    0.90
   5  -4   6   -0.70    1.10
  -5   4   6    0.30    0.80
  -5   4   6    0.00    0.60
   5  -4   6    0.10    1.40
   5  -4   6    0.10    0.90
  -5   4   6    0.40    1.70
   5  -4   6    0.20    0.80
  -5   4   6    3.90    1.10
  -5   4   6    1.00    0.80
  -5   4   6    0.40    0.50
  -5   4   6    2.20    1.00
  -5   4   6    6.00    2.50
   5   4   6    2.00    0.70
   5  -4  -6    0.70    0.70
  -5  -4   6   -1.50    2.60
   5   4   6    0.80    0.60
   5   4   6    2.20    0.80
  -5  -4   6    0.10    1.30
  -5  -4   6    0.50    1.90
  -5  -4   6   -2.10    1.70
   5  -4  -6    0.20    0.80
   5   4   6    0.30    0.50
  -5  -4   6   -1.40    3.00
  -5  -4   6    3.30    2.30
  -5  -4   6   -0.50    1.10
  -5  -4   6   -1.60    2.10
   5   4   6    1.00    0.60
  -5   4  -6   -0.20    1.20
   5   4   6    0.30    0.50
  -5  -4   6   -0.40    1.80
  -5  -4   6    2.20    1.50
  -5  -4   6    2.20    4.50
   5   4   6    2.40    0.90
  -5  -4   6    1.00    2.30
   5   4   6    0.70    0.60
  -5  -4   6    0.90    1.30
  -5  -4   6   -1.60    2.80
   5   4   6    1.30    0.80
  -5  -4   6    1.20    1.90
   5  -4  -6    0.30    0.90
  -5  -4   6    0.40    2.40
  -5  -4   6   -1.20    2.80
   5   4   6    1.00    0.80
   5   4   6    2.20    1.20
  -5  -4   6   -0.10    1.00
   5  -5   6   23.80    2.20
   5  -5   6   26.00    2.00
   5   5  -6   24.10    2.00
  -5   5   6   22.40    3.50
  -5   5   6   25.10    2.00
  -5   5   6   21.80    2.00
  -5   5   6   22.00    2.30
  -5   5   6   23.90    2.20
   5  -5   6   28.70    3.50
  -5   5   6   21.30    1.90
   5  -5   6   25.50    2.50
   5  -5   6   27.50    2.50
  -5  -5  -6   23.00    3.90
  -5   5   6   27.40    2.00
   5  -5   6   25.50    2.20
  -5  -5  -6   21.10    5.10
  -5   5   6   22.90    3.50
  -5   5   6   21.50    1.90
  -5  -5  -6   24.70    6.90
  -5   5   6   20.10    2.10
  -5   5   6   22.30    2.00
  -5   5   6   24.30    2.50
   5  -5   6   25.70    2.30
  -5   5   6   23.80    2.30
  -5   5   6   24.40    2.00
   5   5  -6   25.30    2.00
   5  -5   6   27.50    2.70
   5   5  -6   24.80    2.00
   5  -5  -6   27.70    1.80
   5   5   6   24.10    2.00
   5   5   6   25.90    2.00
  -5  -5   6   24.90    3.90
   5  -5  -6   28.70    2.10
   5   5   6   24.60    1.80
  -5  -5   6   19.00    3.70
   5   5   6   27.30    2.20
  -5   5  -6   21.80    2.70
   5   5   6   25.10    1.90
  -5  -5   6   21.70    4.60
  -5  -5   6   22.70    2.20
  -5  -5   6   21.70    3.50
   5   5   6   26.00    2.50
   5   5   6   22.20    1.80
  -5  -5   6   24.70    3.00
  -5  -5   6   22.00    2.90
  -5  -5   6   20.90    5.40
  -5   5  -6   22.80    2.60
   5   5   6   26.10    1.90
   5   5   6   24.30    1.90
  -5  -5   6   21.50    2.50
  -5  -5   6   24.50    4.00
   5  -5  -6   28.10    2.20
  -5  -5   6   32.20    3.80
   5   0   7    2.80    1.10
  -5   0   7    0.00    0.90
  -5   0   7    1.20    1.30
  -5   0   7   -0.80    1.90
  -5   0   7    0.60    1.00
  -5   0   7  -10.00    4.10
  -5   0   7   -3.00    3.80
  -5   0   7   -0.40    1.10
   5   0   7    2.20    1.10
  -5   0   7    1.30    1.10
   5   0   7    1.90    1.10
  -5   0   7    0.20    2.00
  -5   0   7   -3.30    2.40
  -5   0   7    0.40    1.90
  -5   0   7   -0.30    0.80
  -5   0   7    0.30    1.00
   5   0   7    0.90    0.80
  -5   0   7   -3.40    2.90
   5   0   7    2.60    1.10
  -5   0   7   -1.00    1.30
  -5   0   7    0.10    0.70
   5   0   7    3.30    1.00
   5   0   7    2.60    1.20
  -5   0   7   -0.20    2.20
  -5   0   7    1.30    0.90
  -5   1   7  128.89   10.80
  -5   1   7  129.19    8.00
  -5   1   7  135.49    8.90
   5  -1   7  138.19    8.30
  -5   1   7  131.89    8.00
   5  -1   7  137.19    8.40
   5  -1   7  144.99    8.40
  -5   1   7  130.99    8.30
   5  -1   7  136.89    8.60
  -5   1   7  133.09    8.00
  -5   1   7  127.89   10.40
  -5   1   7  130.29    8.60
   5  -1   7  133.69    8.00
  -5   1   7  134.89    8.30
  -5   1   7  137.59    8.80
  -5   1   7  126.39    8.10
  -5   1   7  134.29    7.90
  -5   1   7  130.39    7.90
   5   1   7  131.49    8.10
   5   1   7  135.99    7.90
   5   1   7  134.39    8.10
   5   1   7  131.99    8.40
   5   1   7  145.29    8.20
   5   1   7  139.69    8.30
   5   1   7  142.99    8.20
   5  -2   7   18.70    2.20
  -5   2   7   16.90    2.00
  -5   2   7   15.10    1.70
   5  -2   7   15.60    2.20
  -5   2   7   15.00    2.00
  -5   2   7   18.70    2.00
   5  -2   7   17.80    2.10
  -5   2   7   16.80    1.70
   5  -2   7   17.80    2.00
  -5   2   7   15.60    2.50
  -5   2   7   14.00    3.60
  -5   2   7   12.10    2.10
  -5   2   7   17.30    1.80
  -5   2   7   16.30    1.80
   5  -2   7   13.30    2.50
  -5   2   7   19.00    2.20
  -5   2   7    9.20    3.20
  -5   2   7   17.50    2.00
   5  -2   7   17.30    1.80
  -5   2   7   13.90    3.40
  -5   2   7   15.90    2.30
  -5  -2   7   18.00    2.50
   5   2   7   19.90    1.80
  -5  -2   7   15.20    2.00
  -5  -2   7   14.90    2.30
   5   2   7   17.10    1.70
  -5  -2   7   10.60    3.10
  -5  -2   7   21.80    2.30
  -5  -2   7   12.30    4.00
   5   2   7   15.80    1.90
  -5  -2   7   16.40    2.90
  -5  -2   7    9.40    2.10
   5   2   7   16.80    1.90
  -5  -2   7   15.90    3.10
  -5  -2   7   15.50    2.20
  -5  -2   7   16.90    3.20
   5   2   7   11.80    1.90
   5   2   7   11.00    1.80
   5   2   7   14.60    1.80
  -5  -2   7    8.10    3.50
  -5  -2   7   17.90    3.90
   5   2   7   18.90    2.10
   5   2   7   18.10    1.70
  -5  -2   7   13.70    3.80
  -5  -2   7    9.70    3.50
   5   2   7   16.50    2.10
  -5  -2   7   14.30    2.00
   5  -3   7   17.90    1.70
   5  -3   7   16.60    2.30
  -5   3   7   16.10    2.10
  -5   3   7   16.80    1.90
   5  -3   7   17.30    2.00
  -5   3   7   15.80    1.80
  -5   3   7   15.90    1.90
  -5   3   7   17.20    1.90
  -5   3   7   17.00    1.60
   5  -3   7   17.90    2.50
  -5   3   7   16.40    2.20
  -5   3   7   16.90    1.80
  -5   3   7   13.70    1.60
   5  -3   7   18.30    1.90
   5  -3   7   18.90    2.30
   5  -3   7   15.70    1.90
  -5   3   7   12.20    3.00
   5  -3   7   11.30    2.20
  -5   3   7   12.90    3.20
  -5   3   7   17.10    1.70
  -5   3   7   16.40    1.60
  -5   3   7   11.70    2.20
  -5  -3   7   19.40    3.40
  -5  -3   7   16.10    3.40
  -5  -3   7   18.10    2.30
  -5  -3   7   15.20    2.90
  -5  -3   7   14.80    2.10
  -5  -3   7   19.90    4.70
   5   3   7   17.00    1.80
  -5  -3   7   19.50    2.50
   5   3   7   14.60    2.00
   5   3   7   17.70    1.70
   5   3   7   18.30    1.80
  -5  -3   7   12.90    2.40
  -5  -3   7   19.70    3.90
   5   3   7   17.60    1.90
  -5  -3   7   15.00    2.10
  -5  -3   7   14.40    2.70
  -5  -3   7   17.80    3.00
   5   3   7   17.20    1.60
  -5  -3   7   19.50    4.50
   5   3   7    9.50    2.10
   5   3   7   16.20    1.50
  -5  -3   7   17.70    2.00
   5   3   7   17.50    1.60
  -5  -3   7   12.90    3.90
   5  -3  -7   15.00    1.30
  -5  -3   7   17.90    3.40
   5   3   7   16.50    1.50
   5   3   7   16.30    1.60
  -5  -3   7   20.90    3.10
  -5   4   7  163.98   12.20
   5  -4   7  187.38   10.40
  -5   4   7  170.48   10.20
   5  -4   7  208.38   11.10
   5   4  -7  189.98   10.20
  -5   4   7  171.08   10.60
  -5   4   7  189.78   10.40
   5  -4   7  172.48   10.30
  -5   4   7  199.88   10.30
   5  -4   7  190.68   10.60
  -5   4   7  189.78   10.20
  -5   4   7  153.18   10.70
  -5   4   7  187.28   10.20
   5   4   7  191.28   10.10
   5   4   7  194.68   10.10
  -5  -4   7  161.78   10.50
  -5  -4   7  214.38   11.30
   5   4   7  196.28   10.10
   5   4   7  188.18   10.60
  -5  -4   7  208.58   11.70
   5   4   7  154.78   10.10
  -5  -4   7  172.08   10.50
  -5   0   8  212.88   12.20
  -5   0   8  212.28   12.20
  -5   0   8  215.68   14.00
   5   0   8  242.68   12.30
  -5   0   8  210.18   12.10
  -5   0   8  225.98   12.60
  -5   0   8  219.18   12.10
  -5   0   8  196.18   14.30
  -5   0   8  221.68   12.40
  -5   0   8  213.98   12.80
  -5   1   8   52.09    3.30
  -5   1   8   40.80    5.20
  -5   1   8   46.40    3.80
  -5   1   8   50.69    3.20
  -5   1   8   47.40    3.40
  -5   1   8   49.20    3.40
  -5   1   8   49.50    3.50
  -5   1   8   49.00    5.20
  -5  -1   8   41.70    4.90
  -5  -1   8   51.69    3.80
  -5  -1   8   47.40    3.50
  -5  -1   8   48.00    3.40
  -5  -1   8   54.29    4.80
  -5  -1   8   45.90    3.90
  -5  -1   8   50.29    3.30
  -5  -1   8   40.30    5.30
  -6   0   0    6.20    2.10
   6   0   0   11.80    1.20
  -6   0   0    8.00    2.50
   6   0   0    7.40    1.30
  -6   0   0   12.00    4.50
   6   0   0    7.60    1.20
  -6   0   0    6.70    2.00
   6   0   0    8.10    1.00
   6   0   0    7.10    1.10
  -6   0   0    8.80    3.10
  -6   0   0    9.30    3.50
  -6   0   0    9.50    5.70
  -6   0   0   10.50    3.90
  -6   0   0    8.30    2.40
  -6   0   0   10.30    3.70
   6   1   0    2.00    0.60
   6  -1   0    0.20    0.80
  -6  -1   0    0.20    1.80
  -6  -1   0   -0.80    4.10
  -6   1   0   -0.10    1.30
  -6   1   0   -0.60    1.80
  -6  -1   0    1.90    2.80
  -6   1   0    0.90    1.40
   6  -1   0   -0.40    0.60
   6   1   0    0.40    0.60
   6  -1   0   -0.30    0.40
   6  -1   0    0.00    0.50
  -6  -1   0    1.60    1.90
  -6   1   0   -0.40    2.50
   6   1   0    0.00    0.70
  -6   1   0    1.80    1.40
  -6  -1   0    0.20    2.50
   6  -1   0   -0.10    0.50
   6   1   0    2.00    0.70
  -6   1   0    0.50    3.20
  -6  -1   0   -0.90    1.90
  -6  -1   0    0.20    2.90
  -6   1   0    0.60    1.40
  -6  -1   0    0.10    1.40
   6  -1   0    0.30    0.60
  -6   1   0    1.30    2.80
  -6  -1   0    0.30    1.50
   6   1   0    0.60    0.60
  -6   1   0    5.80    1.70
   6  -1   0   -0.20    0.50
  -6  -1   0    1.40    2.50
   6  -2   0  918.41   52.99
   6  -2   0  925.61   52.99
   6  -2   0 1024.30   52.99
   6  -2   0 1048.00   52.99
   6   2   0  977.40   54.49
  -6  -2   0 1010.90   57.19
   6  -2   0  934.51   52.89
  -6  -2   0  868.31   55.49
   6   2   0 1040.10   52.99
  -6   2   0  999.10   54.09
   6   2   0  995.70   52.59
  -6   2   0 1026.80   54.39
  -6  -2   0 1032.20   57.09
  -6  -2   0 1102.59   63.69
  -6  -2   0 1035.30   57.19
  -6   2   0 1030.30   54.19
  -6  -2   0  970.90   55.79
  -6   2   0 1036.90   56.49
  -6   2   0  984.40   53.99
   6  -2   0 1031.20   53.99
  -6  -2   0  867.51   55.39
   6   2   0 1014.50   53.49
   6  -2   0  983.70   52.59
  -6  -2   0 1074.19   56.39
  -6   2   0 1053.39   56.19
  -6   2   0 1030.40   54.29
  -6  -2   0 1091.49   54.39
   6  -2   0  908.51   52.79
  -6   2   0  938.21   56.19
  -6  -3   0   -0.40    3.00
  -6   3   0    0.60    1.60
  -6   3   0   -1.50    1.50
  -6  -3   0    1.00    2.50
   6  -3   0    0.10    0.60
  -6  -3   0    1.40    4.70
   6  -3   0    1.00    0.70
   6  -3   0    1.70    1.30
   6   3   0    0.30    0.70
   6  -3   0    0.20    0.80
  -6  -3   0   -0.20    1.80
  -6   3   0   -0.40    2.10
   6  -3   0    0.00    0.80
  -6   3   0   -0.60    1.40
  -6  -3   0    1.40    3.00
   6   3   0    0.90    1.40
  -6  -3   0    0.80    2.90
   6   3   0    1.10    0.70
  -6  -3   0    1.20    2.60
   6   3   0    0.30    0.80
   6  -3   0    0.00    0.60
   6  -3   0    0.60    0.80
   6  -3   0    0.20    0.80
  -6   3   0   -0.20    1.60
   6  -3   0    0.20    0.80
  -6  -3   0   -0.30    2.80
  -6   3   0    1.10    1.80
  -6   3   0    0.10    1.20
   6   4   0   41.20    3.90
  -6  -4   0   49.60    7.50
  -6   4   0   56.99    5.00
  -6  -4   0   44.00   10.60
  -6  -4   0   45.90    6.40
   6  -4   0   44.30    3.70
  -6  -4   0   36.30    9.50
  -6  -4   0   46.20    6.70
   6  -4   0   50.29    3.60
  -6  -4   0   41.60    7.00
  -6  -4   0   38.00    6.50
  -6  -4   0   42.70    6.50
   6  -4   0   47.40    3.40
  -6   4   0   55.49    5.20
   6  -4   0   49.80    3.60
   6   4   0   43.10    3.60
   6  -4   0   48.80    3.10
   6  -4   0   52.19    3.60
   6  -4   0   50.79    3.50
   6  -4   0   43.20    3.60
  -6   4   0   45.80    4.80
   6  -5   0   -0.20    0.70
  -6  -5   0   -0.40    2.80
  -6   5   0    0.80    1.80
  -6   5   0    0.50    1.30
   6  -5   0    0.00    0.60
   6   5   0    0.50    0.90
  -6  -5   0    1.70    3.10
  -6   5   0   -0.50    2.30
  -6  -5   0    5.20    2.90
  -6   5   0    0.40    2.00
  -6   5   0   -0.40    1.50
  -6  -5   0    0.80    3.00
   6  -5   0   -0.50    0.90
  -6  -5   0   -0.20    4.60
   6  -5   0    0.00    0.90
   6   5   0    0.40    0.70
   6  -5   0   -0.20    0.80
   6   5   0   -0.20    0.60
   6  -5   0   -0.30    0.70
  -6  -5   0   -0.40    4.90
   6   5   0    0.70    0.60
  -6  -5   0    1.20    2.40
  -6  -6   0  205.08   14.80
   6   6   0  211.68   12.20
  -6  -6   0  191.08   18.40
   6   6   0  209.18   11.80
  -6  -6   0  201.18   18.00
   6  -6   0  222.08   11.90
  -6  -6   0  183.08   13.50
  -6   6   0  210.28   12.90
   6  -6   0  222.48   12.20
   6  -6   0  226.48   12.10
   6  -7   0    0.70    0.80
  -6  -7   0   -2.10    2.70
   6  -7   0    1.50    0.70
   6   7   0    0.20    0.50
  -6  -7   0    0.60    1.50
  -6   7   0    0.30    1.20
   6  -7   0    0.30    0.70
   6   7   0    0.70    0.60
   6   0   1    2.40    0.80
   6   0   1    0.50    0.60
   6   0  -1   -0.20    0.60
   6   0  -1   -0.50    0.60
  -6   0  -1    2.80    2.20
   6   0   1    0.70    0.70
  -6   0   1   -0.40    3.00
  -6   0  -1    1.20    2.90
  -6   0  -1    2.00    2.60
  -6   0  -1    9.30    3.00
   6   0  -1    0.20    0.60
  -6   0   1   -0.20    2.00
  -6   0  -1    3.10    1.60
   6   0   1    0.90    0.60
  -6   0   1    0.00    1.70
  -6   0   1    0.60    1.40
   6   0   1    0.40    0.50
  -6   0  -1   -0.80    1.40
   6   0  -1    0.50    0.50
  -6   0   1   -1.70    5.20
  -6   0   1    0.70    3.40
  -6   0  -1    0.30    1.30
  -6   0  -1   -0.90    2.40
   6   0  -1    0.30    0.60
  -6   0   1    0.20    2.70
  -6   0   1   -0.50    1.60
  -6   0   1    0.50    1.10
  -6   0   1   -0.90    1.80
   6   0   1    0.00    0.70
   6   0   1    1.40    0.70
   6   0   1    0.10    0.50
  -6   1   1   76.79    7.80
  -6  -1  -1   68.89    7.00
  -6   1   1   66.59    5.90
   6  -1   1   72.99    4.80
  -6   1   1   74.09    6.30
  -6   1   1   71.99    7.50
  -6  -1  -1   73.99    5.90
   6  -1   1   63.09    4.70
  -6  -1  -1   79.79    8.40
  -6  -1  -1   87.49   12.00
  -6  -1  -1   73.69    6.00
  -6   1   1   69.19    6.10
   6   1  -1   74.19    4.60
   6  -1   1   68.99    4.60
   6  -1   1   70.29    4.70
   6  -1   1   69.29    5.40
   6   1  -1   69.79    4.60
   6   1  -1   71.29    4.90
   6   1  -1   69.79    4.30
   6  -1   1   69.79    4.90
   6  -1   1   66.39    4.80
   6  -1   1   69.69    4.40
   6   1  -1   74.89    4.70
  -6  -1  -1   79.99    8.40
  -6   1   1   71.79    5.90
   6  -1   1   67.49    4.60
  -6   1   1   74.29    8.40
  -6   1   1   86.59    7.80
  -6  -1  -1   69.19    6.80
  -6  -1  -1   76.69    7.90
  -6  -1  -1   84.79    7.60
   6  -1   1   64.79    4.60
  -6  -1   1   89.19    6.50
  -6  -1   1   72.59    8.30
  -6  -1   1   85.49    6.30
  -6  -1   1   85.49    6.50
   6   1   1   76.69    4.70
  -6  -1   1   72.59    8.50
  -6  -1   1   79.59    6.10
   6   1   1   68.49    4.80
  -6  -1   1   75.89    7.70
   6   1   1   70.09    4.50
  -6   1  -1   93.59    6.10
   6  -1  -1   68.99    4.50
   6   1   1   71.39    4.50
  -6   1  -1   80.69    8.10
  -6  -1   1   63.89    8.10
   6   1   1   67.09    4.80
  -6   1  -1   82.79    6.10
  -6  -1   1   72.49   11.70
   6  -1  -1   67.29    5.20
   6   1   1   66.89    4.80
   6   1   1   73.19    4.50
  -6  -1   1   80.39    7.60
  -6   1  -1   73.09    5.70
  -6   1  -1   78.49    7.10
   6   1   1   73.19    4.80
   6   2  -1   39.90    3.40
  -6  -2  -1   52.79    6.30
   6  -2   1   43.40    3.30
   6  -2   1   41.50    3.20
  -6  -2  -1   47.90    5.80
   6  -2   1   41.10    3.10
  -6  -2  -1   47.80    7.40
   6  -2   1   41.80    3.30
  -6   2   1   42.60    3.30
  -6   2   1   42.70    4.50
   6  -2   1   37.00    3.20
  -6  -2  -1   43.10    6.30
   6  -2   1   39.20    2.80
   6  -2   1   43.80    3.90
  -6   2   1   41.70    4.40
   6  -2   1   40.50    3.30
   6   2  -1   38.50    4.00
  -6   2   1   46.40    4.40
  -6   2   1   41.40    5.70
   6   2  -1   40.40    2.90
  -6  -2  -1   58.49   11.60
   6  -2   1   37.30    3.10
   6  -2   1   45.00    3.20
  -6   2   1   40.70    4.60
  -6  -2  -1   53.59    7.30
  -6  -2  -1   51.29    4.50
  -6   2   1   39.90    4.70
  -6   2   1   41.30    5.90
  -6  -2   1   46.20    5.10
   6   2   1   40.20    3.00
   6  -2  -1   37.80    3.00
  -6  -2   1   39.10    5.90
   6   2   1   38.10    2.80
   6  -2  -1   41.70    3.10
   6  -2  -1   38.70    3.00
  -6  -2   1   40.10    6.20
   6  -2  -1   39.90    3.70
  -6  -2   1   44.60    6.60
  -6   2  -1   36.60    5.10
   6   2   1   41.70    3.70
  -6   2  -1   45.80    4.60
   6  -2  -1   39.00    3.10
  -6  -2   1   39.90    4.80
   6   2   1   39.10    3.10
   6  -2  -1   36.60    3.10
  -6  -2   1   47.00    5.10
   6   2   1   39.00    3.20
   6  -2  -1   40.10    2.80
  -6  -2   1   39.20    6.90
  -6  -2   1   39.10    5.50
  -6   2  -1   44.50    5.70
   6   2   1   41.00    2.70
  -6  -2   1   43.90   10.30
   6   2   1   44.00    3.10
  -6   2  -1   43.40    4.20
  -6  -2   1   44.60    7.40
   6   2   1   44.60    3.40
   6   2   1   42.70    2.90
  -6  -2   1   39.00    6.60
  -6   2  -1   43.60    4.10
  -6   2  -1   42.60    4.40
  -6  -3  -1   22.60    4.60
   6  -3   1   21.30    3.10
   6  -3   1   19.20    2.20
  -6  -3  -1   21.60    5.30
   6  -3   1   22.50    2.80
   6   3  -1   21.40    2.20
  -6   3   1   22.70    3.80
  -6  -3  -1   23.50    5.20
   6  -3   1   20.60    2.30
  -6   3   1   23.10    3.60
  -6   3   1   22.30    5.00
  -6  -3  -1   18.50    4.60
  -6   3   1   21.50    5.10
   6   3  -1   20.90    3.20
   6   3  -1   22.30    2.50
  -6  -3  -1   23.70    5.50
  -6  -3  -1   21.60    5.10
  -6   3   1   18.40    3.30
   6  -3   1   22.80    2.20
   6  -3   1   20.20    2.10
   6  -3   1   20.10    2.30
  -6   3   1   19.80    3.70
   6  -3   1   19.80    2.30
   6  -3   1   18.40    2.10
  -6   3   1   24.50    3.30
   6  -3   1   19.60    1.80
   6   3   1   22.00    2.10
  -6  -3   1   21.00    4.60
  -6   3  -1   21.30    3.10
  -6  -3   1   17.50    3.30
  -6   3  -1   20.20    3.20
  -6  -3   1   19.90    5.20
   6  -3  -1   21.20    2.30
  -6  -3   1   19.10    8.10
   6   3   1   20.70    2.60
  -6   3  -1   23.20    3.40
   6   3   1   21.50    1.80
   6   3   1   22.00    1.90
   6  -3  -1   21.30    2.10
  -6  -3   1   23.20    5.30
   6   3   1   20.80    3.30
   6  -3  -1   18.70    2.20
   6  -3  -1   19.00    1.70
  -6  -3   1   21.80    5.20
   6   3   1   24.90    2.40
  -6  -3   1   19.20    5.00
  -6   3  -1   23.00    4.60
  -6  -3   1   24.70    5.80
  -6   3  -1   17.70    2.90
   6   3   1   21.60    2.00
   6  -3  -1   20.20    2.10
   6   3   1   23.30    2.10
  -6   4   1  831.52   48.10
   6  -4   1  905.51   46.70
   6  -4   1  866.31   46.80
   6   4  -1  866.81   47.20
  -6  -4  -1  871.01   50.59
   6  -4   1  840.02   46.60
   6  -4   1  839.12   46.80
  -6  -4  -1  869.81   49.60
  -6  -4  -1  921.21   56.89
  -6   4   1  878.61   48.10
   6   4  -1  857.11   46.40
  -6  -4  -1  865.51   49.80
  -6   4   1  898.61   48.00
   6  -4   1  922.81   46.20
   6   4  -1  885.31   46.80
  -6   4   1  929.41   49.00
   6  -4   1  841.92   46.80
   6  -4   1  855.01   46.50
  -6  -4  -1  842.42   50.69
  -6   4   1  918.21   48.20
   6  -4   1  888.81   47.70
  -6  -4  -1  804.52   49.99
   6  -4   1  866.01   46.70
  -6   4   1  855.41   49.80
   6  -4   1  946.81   46.60
  -6  -4   1  850.41   49.99
   6  -4  -1  815.82   46.70
   6  -4  -1  894.31   46.50
  -6  -4   1  858.21   56.49
   6  -4  -1  845.12   46.70
   6  -4  -1  832.42   46.60
  -6  -4   1  821.72   50.59
   6   4   1  907.41   47.00
  -6   4  -1  924.11   47.90
  -6   4  -1  921.91   49.80
   6   4   1  860.31   46.60
  -6  -4   1  887.41   49.99
  -6   4  -1  933.81   47.80
  -6  -4   1  848.32   47.90
   6  -4  -1  864.21   46.10
  -6   4  -1  914.71   47.40
   6  -4  -1  847.52   46.60
   6   4   1  883.91   47.40
  -6  -4   1  730.83   49.50
   6   4   1  888.31   46.70
  -6  -4   1  860.61   50.89
   6  -4  -1  848.92   46.40
  -6   4  -1  945.31   48.00
  -6  -4   1  863.81   50.99
   6  -5   1   98.69    6.30
  -6  -5  -1  101.29    9.50
  -6   5   1  100.89    7.70
   6  -5   1  100.19    6.60
  -6  -5  -1   82.09    8.50
   6  -5   1  104.29    6.30
   6  -5   1  101.99    7.20
  -6   5   1   96.19    7.60
   6  -5   1  103.69    6.60
  -6   5   1   92.29    5.90
  -6   5   1   96.19    8.10
  -6  -5  -1  101.99   13.30
  -6   5   1  101.09    7.50
  -6  -5  -1   98.49    9.50
   6   5  -1   98.99    6.20
  -6  -5  -1   90.29    9.50
   6  -5   1  101.19    6.40
  -6  -5  -1   75.89   13.10
   6   5  -1  104.69    6.90
   6   5  -1   95.59    6.30
   6   5   1  100.29    6.30
  -6  -5   1   99.29    9.80
  -6  -5   1   99.19    9.00
  -6  -5   1  103.39    9.70
  -6   5  -1  112.49    7.70
  -6  -5   1  100.09    9.60
   6   5   1   97.09    6.50
  -6  -5   1   97.29   13.00
   6  -5  -1  101.09    6.30
   6   5   1   93.29    6.80
  -6   5  -1  101.69    9.00
   6  -5  -1  101.49    6.40
   6  -5  -1   98.69    6.50
  -6  -5   1  103.19    9.30
  -6   5  -1  112.49    7.50
   6   5   1   97.19    6.00
   6  -5  -1  101.39    5.70
  -6  -5   1   99.89    9.90
   6  -5  -1   98.99    6.10
  -6  -5   1   85.39   13.10
   6  -5  -1   99.59    6.10
   6  -5  -1   99.59    6.20
  -6   5  -1  115.19    7.70
   6   6  -1    5.30    1.10
   6  -6   1    9.30    1.60
  -6   6   1    8.20    2.40
  -6  -6  -1    5.20    3.70
   6  -6   1   12.20    1.70
  -6  -6  -1    7.30    5.20
  -6  -6  -1    5.30    2.50
  -6   6   1    7.10    1.10
  -6   6   1    7.80    2.20
  -6  -6  -1    5.20    2.70
   6  -6   1    8.50    1.40
   6   6  -1    7.90    1.30
   6  -6   1    9.50    1.70
  -6  -6   1    7.70    3.10
   6   6   1    7.50    1.50
   6   6   1    7.90    1.10
   6   6   1    6.00    1.00
  -6  -6   1    7.00    3.20
   6  -6  -1    7.00    1.30
  -6   6  -1    7.90    2.40
   6   6   1    9.30    1.20
   6  -6  -1    7.20    1.40
   6  -6  -1    9.50    1.20
  -6   6  -1   10.10    2.40
   6  -6  -1    7.70    1.50
  -6  -6   1    5.90    4.30
   6  -6  -1   11.10    1.40
  -6  -6   1    8.60    5.00
   6  -7   1    9.90    1.40
   6  -7   1   10.80    1.30
  -6  -7  -1    7.40    3.80
   6   7  -1    8.50    1.10
  -6  -7  -1    5.60    2.90
  -6   7   1    9.60    1.10
   6   7  -1   10.50    1.10
  -6   7   1    8.70    2.10
  -6  -7  -1    6.60    2.00
   6  -7   1    9.50    1.40
  -6   7   1   10.10    1.40
   6  -7   1   11.10    1.50
  -6   7  -1    7.80    1.70
   6   7   1    9.70    1.10
   6  -7  -1    7.90    1.10
   6   7   1    9.50    1.20
  -6   7  -1    7.70    1.90
  -6  -7   1    4.80    2.10
   6  -7  -1   10.30    1.40
   6  -7  -1    7.60    1.20
   6   7   1    9.10    1.20
   6   7   1    9.90    1.10
   6   7   1    8.80    1.30
  -6  -7   1   11.30    3.70
   6   0   2 1203.08   66.69
  -6   0  -2 1274.97   67.89
  -6   0  -2 1237.98   69.19
  -6   0   2 1197.58   70.39
   6   0   2 1186.68   66.79
  -6   0   2 1233.78   66.89
   6   0   2 1147.49   67.49
   6   0   2 1288.97   67.39
  -6   0   2 1198.58   67.29
  -6   0   2 1278.07   68.39
   6   0   2 1355.86   66.99
   6   0   2 1189.48   66.99
   6   0   2 1211.68   66.79
   6   0  -2 1207.68   66.29
   6   0   2 1317.37   66.89
   6   0   2 1307.17   67.29
  -6   0  -2 1310.87   67.79
   6   0   2 1406.36   67.59
   6   0   2 1259.37   66.49
  -6   0  -2 1311.07   69.09
   6   0   2 1354.06   67.09
  -6   0   2 1226.88   68.49
   6   0   2 1220.78   66.69
   6   0  -2 1133.49   66.69
  -6   0  -2 1460.55   70.99
  -6   0   2 1258.37   68.59
   6   0   2 1290.27   66.79
   6   0  -2 1305.77   67.09
  -6   0   2 1337.17   67.89
  -6   0   2 1346.97   68.29
   6   0   2 1282.67   67.39
  -6   0   2 1256.67   68.29
   6   0  -2 1255.37   66.69
  -6   0   2 1200.08   68.79
   6   0   2 1206.88   66.89
  -6   0   2 1296.37   71.09
  -6   0   2 1240.88   68.69
   6   0  -2 1144.69   66.59
   6   0   2 1200.08   66.89
  -6   0   2 1278.67   72.09
  -6   0   2 1330.47   67.19
  -6   1   2  350.26   20.60
   6  -1   2  367.96   19.10
   6  -1   2  344.57   18.90
  -6   1   2  358.86   19.20
  -6   1   2  357.66   19.10
   6  -1   2  333.57   19.10
   6  -1   2  354.76   19.50
  -6   1   2  339.17   20.80
  -6  -1  -2  340.87   21.50
   6  -1   2  324.37   19.20
   6  -1   2  367.26   19.30
   6  -1   2  326.07   19.10
  -6   1   2  358.26   20.30
   6   1  -2  362.56   19.40
   6  -1   2  353.36   19.00
   6   1  -2  325.17   18.70
  -6  -1  -2  364.46   20.00
   6  -1   2  345.27   18.70
  -6  -1  -2  326.57   21.00
   6  -1   2  318.67   18.80
  -6   1   2  346.07   20.50
  -6  -1  -2  381.66   22.70
   6  -1   2  319.97   18.90
   6  -1   2  326.07   19.00
  -6   1   2  329.17   20.90
  -6   1   2  335.77   19.90
   6  -1   2  380.76   19.90
  -6   1   2  335.37   20.80
  -6   1   2  325.97   22.60
   6  -1   2  343.07   19.50
  -6   1   2  321.97   18.90
  -6  -1   2  325.57   19.10
   6   1   2  364.76   19.50
  -6  -1   2  368.26   22.80
   6   1   2  359.66   19.10
  -6   1  -2  353.86   20.10
   6  -1  -2  355.56   19.20
  -6  -1   2  339.47   20.40
  -6   1  -2  379.36   20.00
  -6  -1   2  390.06   20.60
   6   1   2  344.07   19.00
   6   1   2  344.47   18.60
  -6  -1   2  353.76   20.60
   6   1   2  349.37   19.60
   6   1   2  343.17   18.90
  -6  -1   2  310.77   20.80
   6   1   2  323.67   18.70
  -6  -1   2  328.17   23.70
   6   1   2  364.46   18.90
   6   1   2  319.17   18.90
   6   1   2  353.36   19.10
   6   1   2  336.27   19.40
   6  -1  -2  312.77   18.70
   6   1   2  361.16   19.70
   6  -1  -2  330.97   18.50
   6   1   2  361.46   18.90
   6   1   2  324.27   19.10
  -6  -1   2  347.67   19.40
  -6  -1   2  339.67   23.80
   6   1   2  354.26   19.30
  -6  -1   2  338.77   22.60
   6   1   2  350.86   19.30
  -6  -1   2  340.97   20.70
  -6  -1   2  331.57   20.60
   6  -1  -2  309.57   18.90
   6   1   2  327.97   18.80
  -6  -1   2  378.56   20.10
  -6   1  -2  349.07   20.90
  -6  -1   2  380.46   21.10
  -6   1  -2  358.26   21.60
   6  -1  -2  350.46   18.90
  -6  -1   2  314.27   19.50
  -6   1  -2  355.96   20.00
   6   1   2  321.87   18.70
  -6  -1   2  350.16   29.90
  -6   2   2  471.65   26.30
  -6  -2  -2  531.95   29.50
  -6   2   2  477.25   28.40
   6  -2   2  493.15   26.10
  -6   2   2  487.25   27.90
  -6   2   2  483.85   28.20
   6  -2   2  463.15   26.50
   6  -2   2  465.05   26.40
  -6  -2  -2  522.55   30.10
  -6   2   2  467.05   27.10
  -6   2   2  472.75   27.90
   6  -2   2  463.35   26.60
   6   2  -2  514.75   26.80
   6  -2   2  476.05   26.30
  -6   2   2  525.75   28.80
  -6  -2  -2  437.56   28.90
   6  -2   2  463.25   26.50
  -6  -2  -2  575.84   37.00
  -6   2   2  480.55   28.10
  -6  -2  -2  552.84   30.80
  -6   2   2  425.26   30.00
  -6   2   2  500.95   26.40
  -6   2   2  477.75   30.40
  -6  -2  -2  551.94   31.10
   6  -2   2  468.95   26.40
  -6   2   2  507.65   26.40
   6  -2   2  508.65   26.80
   6  -2   2  466.55   26.50
   6  -2   2  443.66   26.30
   6  -2   2  509.25   26.60
   6  -2   2  448.96   27.30
   6   2   2  496.05   25.90
  -6   2  -2  498.75   27.40
  -6   2  -2  487.45   27.10
   6  -2  -2  483.15   25.80
   6   2   2  473.75   26.30
  -6  -2   2  477.95   36.40
  -6  -2   2  478.05   28.10
  -6  -2   2  470.35   29.80
   6   2   2  475.15   26.00
  -6   2  -2  491.25   28.90
   6   2   2  477.95   26.50
   6   2   2  438.36   26.60
   6   2   2  500.65   26.10
   6  -2  -2  513.15   26.30
  -6  -2   2  451.85   29.80
   6  -2  -2  465.85   26.30
   6   2   2  479.85   26.10
   6   2   2  476.05   26.70
   6   2   2  473.85   26.40
  -6  -2   2  491.85   28.30
  -6  -2   2  477.95   27.90
   6   2   2  501.65   26.50
  -6  -2   2  470.35   30.80
   6   2   2  494.55   26.40
  -6   2  -2  497.85   27.50
   6   2   2  514.35   26.90
  -6  -2   2  475.35   26.80
  -6  -2   2  454.05   26.60
   6   2   2  493.95   26.50
  -6  -2   2  439.96   30.60
  -6  -2   2  518.45   27.80
   6  -2  -2  466.35   26.20
  -6  -2   2  465.55   29.80
   6   2   2  491.55   26.20
  -6  -2   2  476.95   30.80
   6   2   2  502.85   26.70
   6   2   2  487.65   27.00
   6  -3   2  191.28   10.70
  -6  -3  -2  201.48   13.50
  -6   3   2  164.48   14.00
   6  -3   2  178.58   10.60
  -6  -3  -2  204.68   14.10
   6  -3   2  164.68   10.60
  -6   3   2  176.98   12.10
   6  -3   2  188.58   10.90
  -6   3   2  163.38   10.30
  -6  -3  -2  197.88   14.40
  -6   3   2  178.48   10.50
  -6  -3  -2  189.48   14.00
   6  -3   2  185.48   10.20
   6  -3   2  177.08   10.50
   6  -3   2  166.58   10.50
  -6   3   2  182.58   12.70
  -6   3   2  158.18   11.80
  -6  -3  -2  212.48   15.00
   6  -3   2  190.58   11.60
   6   3  -2  183.88   11.00
   6   3  -2  177.78   10.30
  -6   3   2  169.28   10.30
   6  -3   2  178.98   10.80
  -6  -3  -2  226.88   20.30
   6  -3   2  168.68   10.70
   6  -3   2  174.08   10.70
  -6   3   2  180.48   12.40
   6  -3   2  167.38   10.70
  -6   3   2  174.98   12.50
   6   3   2  179.48   10.20
   6   3   2  187.18   10.40
   6   3   2  177.08   10.80
  -6  -3   2  186.88   19.80
   6  -3  -2  160.08   10.30
  -6  -3   2  187.78   14.80
   6  -3  -2  171.88   10.30
   6   3   2  178.28   10.50
   6   3   2  189.38   10.60
   6   3   2  171.48   10.10
  -6   3  -2  186.38   11.40
  -6  -3   2  165.68   14.30
  -6  -3   2  208.48   12.40
   6  -3  -2  170.98   10.00
  -6  -3   2  153.38   10.80
   6   3   2  177.08   10.60
   6  -3  -2  166.68   10.50
  -6   3  -2  182.18   11.50
   6   3   2  190.28   10.50
  -6  -3   2  185.08   14.20
   6   3   2  174.18   10.90
   6  -3  -2  182.48   10.40
   6   3   2  207.58   11.80
  -6  -3   2  190.38   13.90
  -6  -3   2  180.28   13.90
   6   3   2  182.08   10.50
  -6   3  -2  182.28   13.10
  -6  -3   2  183.78   14.10
  -6  -3   2  218.38   12.90
  -6   3  -2  178.28   11.60
  -6  -3   2  185.18   14.80
   6   3   2  176.48   10.00
  -6   4   2  452.35   29.90
  -6  -4  -2  484.85   30.50
   6  -4   2  498.75   26.70
   6  -4   2  481.45   26.80
   6   4  -2  501.65   26.40
   6   4  -2  481.05   26.40
   6   4  -2  491.65   27.10
  -6  -4  -2  453.25   29.90
   6  -4   2  482.25   26.70
   6  -4   2  476.85   26.90
   6  -4   2  518.05   27.80
  -6   4   2  458.65   28.20
  -6   4   2  495.15   28.30
  -6  -4  -2  491.35   35.50
   6  -4   2  484.15   26.80
  -6   4   2  486.55   28.90
   6  -4   2  466.85   26.60
   6  -4   2  526.45   26.80
  -6  -4  -2  468.85   30.00
  -6   4   2  493.35   28.10
  -6   4   2  495.85   26.20
   6   4  -2  471.95   26.60
  -6   4   2  490.55   26.60
   6   4   2  480.45   27.50
  -6   4  -2  523.25   27.80
  -6  -4   2  486.15   29.90
  -6   4  -2  520.35   27.70
   6   4   2  480.55   26.20
   6  -4  -2  476.55   26.40
   6  -4  -2  526.75   26.50
  -6   4  -2  516.95   27.60
   6   4   2  487.45   26.00
   6   4   2  499.05   26.60
  -6   4  -2  501.65   29.40
   6  -4  -2  503.35   26.40
  -6  -4   2  454.75   35.40
  -6  -4   2  440.56   30.20
   6  -4  -2  462.35   26.50
   6   4   2  506.85   26.40
   6  -4  -2  511.15   26.00
   6   4   2  479.75   26.30
   6  -4  -2  505.35   26.60
  -6  -4   2  467.15   30.70
  -6  -4   2  460.85   29.80
   6   4   2  465.55   26.80
  -6  -4   2  467.05   29.90
  -6  -4   2  487.85   28.00
   6   4   2  486.15   26.70
  -6  -4   2  462.85   30.50
   6  -5   2    3.80    1.10
  -6   5   2    4.80    1.10
  -6  -5  -2    5.20    3.30
  -6  -5  -2    4.40    4.70
   6   5  -2    5.80    1.10
   6  -5   2    4.80    1.40
   6   5  -2    4.80    1.40
   6  -5   2    4.20    1.60
  -6  -5  -2    2.00    3.90
  -6   5   2    5.60    1.40
  -6  -5  -2    5.00    3.00
   6  -5   2    4.10    1.30
  -6   5   2    4.70    2.10
  -6   5   2    6.30    2.60
   6  -5   2    4.70    1.40
   6   5  -2    4.00    1.10
   6  -5   2    3.50    1.20
  -6   5   2    6.60    2.20
  -6  -5  -2    6.70    3.30
   6  -5   2    4.10    1.10
  -6  -5  -2    4.20    5.60
  -6  -5   2    4.60    3.30
   6  -5  -2    9.30    1.40
  -6  -5   2    2.00    4.80
  -6  -5   2    5.50    3.50
   6   5   2    5.30    1.00
   6  -5  -2    5.40    1.30
  -6   5  -2    4.40    2.10
   6   5   2    6.00    1.40
   6  -5  -2    5.10    1.40
  -6   5  -2    5.90    2.20
   6   5   2    4.00    1.10
   6   5   2    4.60    1.50
  -6  -5   2    4.70    3.40
  -6   5  -2    4.10    1.80
  -6  -5   2    3.60    2.90
   6   5   2    4.10    1.10
   6  -5  -2    5.00    1.10
   6  -5  -2    6.50    1.00
  -6  -5   2    5.20    3.30
   6   5   2    5.70    1.00
   6   5   2    4.90    1.40
  -6  -5   2    1.40    3.00
  -6   5  -2    3.00    2.90
   6   6  -2  152.08    8.70
  -6  -6  -2  124.89   10.60
  -6   6   2  147.99    8.90
  -6   6   2  151.68   10.60
   6  -6   2  164.88    8.80
  -6  -6  -2  124.19   15.00
   6  -6   2  160.88    8.80
   6   6  -2  150.98    8.70
   6  -6   2  159.38    9.10
   6  -6   2  154.08    9.10
  -6   6   2  145.39    8.50
   6  -6   2  164.88    9.20
   6   6  -2  142.39    8.70
   6  -6   2  156.18    9.00
   6   6   2  154.98    8.60
  -6   6  -2  158.18    9.70
   6  -6  -2  156.78    9.00
   6  -6  -2  157.68    8.80
   6   6   2  151.28    8.50
  -6  -6   2  132.09   10.60
  -6   6  -2  149.99    9.70
   6  -6  -2  161.08    9.00
  -6   6  -2  151.98    9.70
  -6  -6   2  131.19   11.30
  -6  -6   2  150.08   14.70
  -6  -6   2  141.89   11.40
   6   6   2  156.88    9.20
   6  -6  -2  159.28    8.80
   6  -6  -2  152.58    8.30
   6   6   2  145.79    8.70
   6  -6  -2  157.48    8.60
   6   6   2  145.99    8.80
   6   6   2  144.79    8.50
  -6  -7  -2    0.60    2.70
  -6  -7  -2    0.80    1.40
  -6   7   2    0.70    1.20
  -6   7   2    3.40    1.00
   6   7  -2    0.90    0.50
   6  -7   2    0.20    0.70
   6  -7   2    0.60    0.80
   6  -7  -2    0.70    0.70
  -6  -7   2    0.10    1.50
   6  -7  -2    0.00    0.60
   6   7   2    0.80    0.50
  -6  -7   2    0.80    0.90
   6   7   2   -0.20    0.70
   6   7   2   -0.10    0.50
   6   0   3   -0.50    1.00
  -6   0   3    1.40    3.20
  -6   0   3    3.30    2.10
   6   0   3    0.70    1.10
  -6   0   3    0.10    0.80
   6   0   3    1.00    0.90
  -6   0  -3    3.50    2.10
  -6   0  -3   -0.40    1.50
  -6   0   3    1.60    1.30
  -6   0  -3   -0.80    2.20
   6   0   3    0.00    0.70
   6   0  -3    0.00    0.60
  -6   0   3    0.00    2.80
   6   0   3    0.00    0.90
   6   0   3    2.20    1.00
   6   0   3    1.00    1.00
   6   0   3    0.10    0.70
  -6   0   3    0.40    1.60
  -6   0   3    0.40    0.80
  -6   0   3    1.30    1.10
   6   0  -3    0.60    0.50
   6   0   3    0.50    0.80
  -6   0   3    0.80    1.10
  -6   0   3   -0.80    0.80
  -6   0   3   -0.40    1.60
   6   0   3    0.50    0.60
   6   0   3    1.00    1.20
   6   0   3    3.10    0.90
   6   0   3   -0.40    0.70
   6   0  -3    1.50    0.90
  -6   0   3    0.30    4.30
  -6   0   3   -0.90    2.00
   6   0   3    0.30    0.70
   6   0   3    0.40    0.90
  -6   0   3    0.70    2.20
  -6   0   3    0.30    1.70
   6   0   3    2.10    0.80
  -6   0   3    1.70    1.70
  -6   0   3    2.10    1.50
   6   0   3    0.30    0.60
  -6   0   3   -0.70    2.50
  -6   0   3   -0.40    1.50
   6   0   3   -0.10    0.80
  -6   0   3    0.90    1.80
   6   0   3    1.80    0.80
   6   0   3    0.50    0.90
   6   0   3    0.70    0.70
   6  -1   3    7.00    1.50
  -6   1   3    6.50    3.00
  -6  -1  -3    8.30    3.60
   6  -1   3    7.50    1.50
  -6   1   3    7.40    1.40
   6  -1   3   13.80    2.20
   6  -1   3   14.50    2.10
   6  -1   3   10.10    2.00
  -6   1   3    9.50    3.80
  -6   1   3    5.80    3.60
   6  -1   3    9.10    1.60
   6  -1   3   10.10    2.00
   6  -1   3   10.00    1.60
   6  -1   3    7.30    1.30
   6  -1   3    9.00    1.50
  -6   1   3    8.80    1.70
  -6   1   3    7.50    3.10
  -6   1   3    9.50    1.70
  -6   1   3    8.00    2.70
   6  -1   3    6.40    1.20
   6  -1   3    6.10    2.00
   6   1  -3    5.80    1.40
   6  -1   3    8.10    1.70
   6  -1   3    5.90    1.70
  -6   1   3    7.70    1.90
  -6   1   3    8.00    2.40
  -6  -1  -3   10.40    2.50
  -6   1   3    8.70    1.60
  -6   1   3    8.60    2.70
  -6   1   3    7.30    2.00
  -6   1   3    9.80    1.80
  -6   1   3    9.40    2.80
  -6  -1  -3   23.90    4.90
   6  -1   3    7.80    1.70
   6  -1   3    6.40    1.40
  -6   1   3    8.60    2.90
  -6   1   3    6.40    2.60
   6  -1   3    7.80    1.40
   6  -1   3    8.00    1.40
   6  -1   3    7.10    1.40
   6  -1   3    8.60    1.60
   6  -1   3    6.90    1.50
   6   1   3    6.60    1.50
  -6  -1   3    8.90    2.60
   6   1   3   10.20    1.80
  -6  -1   3    6.90    2.50
   6   1   3    7.70    1.90
   6   1   3   10.20    1.60
  -6   1  -3    8.40    2.20
   6   1   3    7.60    1.40
   6   1   3    9.10    1.40
   6   1   3    9.70    1.60
   6   1   3    8.90    1.70
  -6   1  -3    7.30    2.90
  -6  -1   3    6.10    2.90
  -6  -1   3    7.70    1.60
  -6  -1   3    8.60    2.90
   6   1   3    9.60    1.30
  -6  -1   3    3.90    2.70
   6   1   3    5.40    1.80
  -6  -1   3   15.20    3.20
  -6  -1   3    7.60    4.20
   6  -1  -3    6.60    1.40
  -6  -1   3    7.60    1.70
  -6  -1   3    7.50    1.80
   6   1   3    7.40    1.30
  -6   1  -3   11.40    2.40
  -6  -1   3    8.40    4.60
  -6  -1   3    7.40    3.90
  -6  -1   3   12.00    2.70
  -6   1  -3    7.90    2.70
  -6  -1   3    9.60    2.10
  -6  -1   3    7.10    1.50
   6   1   3   10.60    1.80
   6   1   3    8.10    1.40
   6  -1  -3   12.60    1.50
   6   1   3    9.50    1.80
   6  -1  -3   10.90    1.20
  -6  -1   3   12.60    3.30
   6   1   3    9.70    1.70
  -6  -1   3    7.50    4.20
   6   1   3    7.20    1.80
  -6  -1   3    6.80    5.50
  -6  -1   3   16.20    3.20
  -6   2   3   62.69    6.40
   6  -2   3   65.59    4.70
   6  -2   3   63.19    5.00
  -6   2   3   67.89    4.80
   6  -2   3   65.09    5.30
  -6   2   3   66.09    5.30
  -6  -2  -3   84.19   12.20
  -6   2   3   68.89    6.70
  -6  -2  -3   85.89    8.70
   6  -2   3   66.69    4.90
   6  -2   3   68.19    4.60
   6  -2   3   63.69    5.10
  -6   2   3   71.89    4.70
  -6  -2  -3   80.79    8.10
  -6   2   3   69.39    6.10
   6  -2   3   62.89    4.70
  -6   2   3   62.79    6.20
   6  -2   3   70.29    5.30
  -6   2   3   59.39    8.80
  -6  -2  -3   77.29    7.20
   6  -2   3   63.99    4.80
   6  -2   3   64.39    4.60
   6  -2   3   63.59    4.60
  -6   2   3   67.29    4.60
  -6   2   3   70.89    7.40
   6  -2   3   74.49    4.70
   6  -2   3   65.59    4.60
  -6  -2  -3   67.09    7.40
   6  -2   3   70.59    5.40
  -6   2   3   69.69    6.00
   6  -2   3   64.39    4.80
   6  -2   3   68.09    4.70
   6  -2   3   64.89    5.00
  -6   2   3   64.69    4.50
   6   2  -3   69.09    5.00
  -6   2   3   69.69    4.30
  -6   2   3   65.79    7.30
   6  -2  -3   74.19    4.90
  -6  -2   3   71.39    5.90
   6   2   3   68.49    4.80
   6   2   3   69.89    5.00
  -6  -2   3   65.69    6.70
   6   2   3   67.19    4.80
   6  -2  -3   62.39    4.40
   6   2   3   67.69    5.20
  -6  -2   3   65.69    4.90
  -6  -2   3   64.09    6.30
  -6  -2   3   62.79    6.60
  -6   2  -3   68.29    5.60
   6   2   3   66.89    4.40
   6   2   3   72.89    4.40
  -6  -2   3   64.69    9.10
   6   2   3   68.39    4.50
   6   2   3   69.69    4.50
  -6  -2   3   63.59    7.80
  -6  -2   3   72.89   10.60
   6   2   3   66.99    4.90
  -6  -2   3   61.49    5.30
   6   2   3   71.09    4.70
  -6  -2   3   70.89    6.60
   6   2   3   65.39    4.60
   6   2   3   68.39    4.70
   6  -2  -3   63.49    4.60
   6   2   3   71.69    5.40
   6   2   3   67.09    4.60
  -6  -2   3   64.59    5.10
   6   2   3   67.29    4.40
  -6  -2   3   65.19    9.50
  -6  -2   3   67.69    8.20
  -6  -2   3   58.39   13.30
  -6  -2   3   57.59    9.30
   6   2   3   65.69    4.90
   6  -2  -3   65.19    4.10
   6   2   3   62.89    4.50
  -6  -2   3   69.59    6.20
   6   2   3   67.09    4.20
  -6  -2   3   68.89    6.40
   6  -2  -3   69.19    4.60
   6   2   3   64.49    4.50
  -6   2  -3   85.59    7.40
   6   2   3   68.79    4.50
   6   2   3   65.29    4.70
  -6   2  -3   68.69    5.40
  -6   3   3  133.29   10.40
  -6   3   3  142.99   11.10
  -6  -3  -3  155.08   12.20
  -6  -3  -3  152.48   11.20
  -6   3   3  133.29    8.50
   6   3  -3  139.69    8.80
   6  -3   3  137.69    8.40
   6  -3   3  139.39    8.40
   6  -3   3  147.39    9.20
  -6   3   3  148.19   11.30
  -6   3   3  129.89   10.10
  -6  -3  -3  141.59   11.70
  -6   3   3  139.39   10.00
  -6   3   3  127.29   12.70
  -6   3   3  142.79    8.40
   6  -3   3  139.69    8.60
   6  -3   3  145.29    9.00
   6  -3   3  134.49    8.60
   6  -3   3  138.79    8.70
  -6  -3  -3  172.98   12.90
  -6   3   3  130.99    8.90
   6  -3   3  135.39    8.70
   6  -3   3  128.59    8.60
  -6  -3  -3  163.58   16.90
   6  -3   3  146.99    9.40
  -6   3   3  130.99    8.20
   6  -3   3  148.39    8.90
  -6   3   3  136.69    8.00
   6  -3   3  139.59    8.40
   6  -3   3  142.79    8.70
  -6   3   3  137.59   10.70
   6  -3   3  128.99    8.40
   6   3   3  139.09    7.90
  -6   3  -3  150.18    9.30
   6   3   3  141.89    8.20
   6   3   3  142.99    8.40
  -6  -3   3  123.09   17.10
  -6  -3   3  126.99   12.40
  -6  -3   3  125.99   12.50
   6  -3  -3  133.89    8.40
   6   3   3  134.09    8.20
  -6   3  -3  173.38   11.50
   6   3   3  134.39    8.00
   6   3   3  134.49    8.60
   6   3   3  137.79    8.10
  -6  -3   3  130.39    9.00
   6   3   3  134.39    8.40
   6   3   3  134.29    8.40
   6   3   3  143.29    9.40
  -6  -3   3  134.09   11.90
   6   3   3  144.59    9.00
  -6  -3   3  145.39   10.30
   6   3   3  137.89    8.10
   6   3   3  139.09    8.50
   6   3   3  139.49    9.00
  -6  -3   3  131.79   12.80
   6   3   3  134.69    8.50
  -6  -3   3  118.79   11.80
   6   3   3  136.89    8.60
  -6   3  -3  175.68   10.00
  -6  -3   3  145.99   10.60
   6  -3  -3  141.19    8.30
  -6  -3   3  148.89   10.70
   6  -3  -3  137.09    7.90
   6   3   3  134.59    8.30
  -6  -3   3  146.49    9.90
   6  -3  -3  131.89    8.20
  -6  -3   3  120.59    9.70
   6   3   3  138.29    8.20
  -6  -3   3  129.19   11.80
   6   3   3  138.99    8.80
  -6  -3   3  133.49    9.10
  -6   4   3  255.27   16.20
  -6   4   3  231.78   16.20
   6  -4   3  238.58   13.90
   6   4  -3  235.48   13.30
   6  -4   3  268.67   14.10
   6  -4   3  234.78   13.90
   6  -4   3  242.18   13.60
   6  -4   3  233.58   13.60
   6  -4   3  245.58   14.30
  -6   4   3  231.98   13.30
   6  -4   3  253.77   13.60
  -6   4   3  240.98   13.70
   6   4  -3  239.68   14.00
  -6  -4  -3  217.08   16.70
   6  -4   3  243.58   13.80
  -6   4   3  217.58   13.30
   6  -4   3  239.68   13.80
  -6   4   3  243.88   13.20
  -6  -4  -3  230.88   17.00
   6  -4   3  239.48   13.80
   6   4  -3  232.48   13.40
  -6  -4  -3  214.98   20.80
  -6   4   3  256.87   15.70
  -6   4   3  242.88   15.50
   6   4   3  243.78   13.40
   6   4   3  234.98   13.20
   6   4   3  240.88   13.20
   6  -4  -3  266.27   13.50
  -6  -4   3  225.98   17.40
   6   4   3  238.08   13.60
   6   4   3  239.08   14.00
  -6  -4   3  222.38   17.50
   6   4   3  234.48   13.10
   6  -4  -3  260.57   13.70
  -6  -4   3  225.68   16.40
   6   4   3  237.18   13.40
  -6  -4   3  229.98   16.80
   6   4   3  233.68   13.30
  -6  -4   3  202.38   13.80
   6   4   3  233.98   13.60
   6   4   3  247.08   14.30
  -6  -4   3  226.38   15.40
  -6  -4   3  219.88   17.20
  -6  -4   3  233.18   15.10
   6   4   3  230.88   13.50
  -6  -4   3  213.98   16.50
   6   4   3  249.38   13.40
  -6  -4   3  205.68   21.20
   6  -4  -3  257.17   13.10
   6  -5   3   97.69    6.20
  -6  -5  -3   89.99    8.80
   6  -5   3   95.29    6.30
   6  -5   3   97.49    6.30
   6   5  -3   96.09    5.80
   6  -5   3  103.89    5.80
  -6  -5  -3   82.79    8.30
   6   5  -3   92.99    5.90
   6   5  -3   93.29    5.70
   6  -5   3   93.59    6.30
  -6   5   3   93.39    6.10
  -6   5   3   86.69    7.30
  -6   5   3   94.99    6.90
   6  -5   3  101.39    7.10
   6  -5   3   99.79    6.10
   6  -5   3   93.19    6.10
  -6   5   3   92.39    5.60
  -6   5   3   85.39    7.70
   6  -5   3   95.19    6.60
   6   5  -3   91.69    6.30
  -6   5   3   95.89    7.30
   6  -5   3  104.89    6.10
  -6   5   3   88.09    7.40
  -6  -5  -3   70.99   13.30
   6  -5   3  102.39    6.00
  -6   5   3   85.09    7.90
   6   5   3   92.19    6.00
  -6   5  -3   93.09    8.30
   6   5   3   94.49    5.90
   6   5   3   93.09    5.70
  -6   5  -3   98.69    7.10
  -6  -5   3   87.49    9.20
   6   5   3   94.89    5.70
   6   5   3   87.89    6.20
  -6  -5   3   83.89    8.60
   6  -5  -3   98.39    6.00
  -6  -5   3   85.19   11.80
   6  -5  -3   93.49    6.00
  -6  -5   3   79.09    8.80
   6  -5  -3  106.19    6.00
   6  -5  -3   91.99    5.90
   6   5   3   89.09    6.30
  -6  -5   3   91.99    8.50
  -6  -5   3   83.39    9.20
  -6  -5   3   94.29    7.40
  -6   5  -3   96.09    7.00
   6  -5  -3   99.09    5.90
   6  -5  -3  101.69    5.50
  -6   5  -3   97.29    6.80
   6   5   3   95.29    6.00
  -6  -5   3   97.59    8.90
   6   5   3   96.09    5.60
   6  -6   3   11.10    1.40
  -6   6   3    9.30    2.30
  -6  -6  -3   10.50    3.00
   6  -6   3   10.30    1.60
   6  -6   3   10.90    1.20
  -6   6   3   11.70    1.70
   6   6  -3    9.50    1.20
   6   6  -3   10.10    1.40
  -6   6   3    9.70    2.20
  -6   6   3   10.30    1.20
   6  -6   3   12.40    1.60
  -6   6   3    8.10    2.40
  -6  -6  -3    9.20    5.10
   6  -6   3   11.60    1.60
   6  -6   3    8.50    1.40
   6   6  -3   11.20    1.30
  -6  -6  -3    9.30    3.80
   6  -6   3    9.90    1.70
  -6  -6   3   10.20    3.10
  -6  -6   3   11.80    4.90
   6  -6  -3   11.10    1.10
   6   6   3   10.10    1.60
  -6   6  -3   10.40    2.10
   6   6   3   10.70    1.40
  -6  -6   3    9.50    3.00
  -6  -6   3   10.00    1.80
   6  -6  -3    9.40    1.40
   6  -6  -3   11.60    1.40
   6   6   3   10.50    1.20
   6  -6  -3   11.20    1.50
  -6   6  -3    9.40    2.10
  -6  -6   3    9.90    2.80
  -6   6  -3   10.30    2.10
   6   6   3    9.70    1.40
   6   6   3   11.70    1.20
   6  -6  -3   11.90    1.60
  -6  -6   3   12.80    3.30
   6   0   4   66.89    4.50
  -6   0   4   63.69    4.90
  -6   0  -4   69.29    7.10
  -6   0   4   58.79    4.60
  -6   0   4   61.79    7.10
  -6   0   4   66.89    6.70
  -6   0  -4   67.99    5.50
  -6   0   4   62.39    4.80
   6   0   4   65.89    4.50
   6   0   4   65.29    4.60
  -6   0   4   65.99    6.40
   6   0   4   63.09    4.80
   6   0   4   69.59    4.60
  -6   0   4   71.29    4.80
   6   0   4   61.39    5.00
   6   0   4   64.29    4.80
  -6   0   4   61.99    4.50
  -6   0   4   64.89    6.40
  -6   0   4   69.09    4.60
  -6   0   4   60.59    5.30
  -6   0   4   49.99    5.70
  -6   0   4   70.79    6.20
   6   0   4   62.19    4.50
   6   0   4   62.69    4.40
  -6   0   4   65.99    6.20
  -6   0   4   69.19    4.80
  -6   0   4   53.99    7.30
  -6   0   4   61.09    7.20
  -6   0   4   63.79    4.20
   6   0   4   64.39    4.60
  -6   0   4   67.29    5.80
   6   0   4   65.89    4.70
   6   0  -4   67.99    4.90
   6   0   4   62.09    4.40
   6   0   4   63.29    4.60
   6   0   4   63.69    4.50
   6   0   4   62.99    4.40
   6   0   4   65.69    5.00
  -6   0   4   65.99    5.40
  -6   0   4   60.99    6.90
   6   0   4   64.39    5.00
   6   0   4   66.69    4.70
   6   0   4   66.09    4.90
  -6   0   4   51.89    5.20
  -6   0   4   59.09    8.80
   6  -1   4   73.99    5.10
   6  -1   4   73.19    5.20
  -6   1   4   75.39    7.20
   6  -1   4   73.39    5.60
   6  -1   4   75.29    5.50
  -6   1   4   74.19    5.30
  -6   1   4   69.29    6.40
  -6  -1  -4   79.19    7.80
  -6   1   4   66.59    8.10
   6  -1   4   74.59    5.10
   6  -1   4   77.09    5.00
   6  -1   4   77.59    5.60
  -6   1   4   52.29    9.30
  -6   1   4   73.49    7.50
  -6   1   4   63.89    6.20
  -6   1   4   65.39    8.10
  -6   1   4   72.89    5.20
  -6   1   4   72.09    5.70
   6  -1   4   69.89    5.30
  -6   1   4   73.39    5.00
  -6   1   4   78.99    7.20
  -6   1   4   71.99    6.50
  -6   1   4   71.29    7.00
   6   1  -4   76.49    5.30
  -6   1   4   70.79    5.10
   6  -1   4   74.29    5.00
  -6   1   4   66.49    6.60
  -6   1   4   73.69    4.90
  -6   1   4   72.89    4.70
  -6   1   4   76.29    5.90
   6  -1   4   73.99    5.00
   6  -1   4   61.69    5.60
   6  -1   4   72.09    5.10
  -6   1   4   73.49    4.90
   6  -1   4   77.99    5.00
  -6   1   4   63.19    5.70
  -6   1   4   77.69    5.00
  -6   1   4   78.99    5.20
   6  -1   4   73.19    5.10
   6  -1   4   62.39    5.40
   6  -1   4   77.49    5.20
   6  -1   4   71.99    5.00
  -6  -1  -4   80.89    8.10
   6   1   4   74.69    5.00
  -6  -1   4   70.59    8.20
  -6  -1   4   74.79    6.40
  -6   1  -4   68.49    6.90
   6   1   4   75.59    5.30
  -6  -1   4   76.09    6.60
   6   1   4   74.99    4.80
   6   1   4   73.69    4.90
  -6  -1   4   65.59   10.10
   6   1   4   73.29    4.80
  -6  -1   4   75.89    5.30
  -6   1  -4   72.79    5.90
   6  -1  -4   71.59    4.70
   6   1   4   75.39    4.90
  -6  -1   4   74.69    6.90
   6   1   4   73.89    4.90
   6   1   4   76.99    5.10
  -6  -1   4   70.59    7.60
  -6  -1   4   69.19    6.80
  -6  -1   4   70.39    6.00
   6   1   4   77.59    5.30
  -6  -1   4   49.10    8.80
   6   1   4   73.19    5.00
  -6  -1   4   74.99    7.50
  -6  -1   4   73.59    5.10
  -6  -1   4   74.39    6.50
   6  -1  -4   78.89    5.30
  -6  -1   4   75.09    7.30
   6   1   4   77.49    5.30
   6   1   4   71.19    5.50
   6   1   4   70.79    4.70
  -6  -1   4   72.29    5.40
   6   1   4   78.89    4.70
  -6  -1   4   61.49    8.80
  -6  -1   4   72.59    5.00
  -6  -1   4   76.29    5.40
  -6  -1   4   70.69    5.20
   6   1   4   72.09    5.20
  -6  -1   4   63.39   11.30
   6   1   4   68.89    5.10
  -6  -1   4   77.49    5.50
   6  -1  -4   69.49    4.40
   6   1   4   73.39    5.00
   6   1   4   75.79    5.50
   6   1   4   75.29    5.00
   6   2  -4  441.66   24.60
   6  -2   4  446.56   24.40
  -6   2   4  415.96   27.30
   6  -2   4  433.76   24.50
  -6   2   4  431.86   26.90
  -6   2   4  463.85   24.10
  -6  -2  -4  466.25   33.50
   6  -2   4  461.65   24.40
   6  -2   4  467.35   25.00
  -6   2   4  430.16   27.60
  -6   2   4  447.26   25.80
   6  -2   4  461.85   24.50
  -6   2   4  442.56   24.00
   6  -2   4  438.56   24.70
  -6   2   4  446.66   25.10
   6  -2   4  487.05   24.30
  -6   2   4  387.76   24.90
  -6   2   4  424.36   24.30
   6  -2   4  431.16   24.40
  -6   2   4  353.76   29.60
   6  -2   4  383.96   24.30
  -6   2   4  373.06   25.40
  -6  -2  -4  405.26   26.90
   6  -2   4  453.75   24.70
  -6   2   4  441.36   24.40
   6  -2   4  461.95   25.10
   6  -2   4  444.26   24.50
   6  -2   4  430.96   24.40
  -6   2   4  498.95   27.00
  -6   2   4  445.86   24.60
  -6   2   4  412.56   23.90
  -6   2   4  487.55   24.30
  -6  -2  -4  445.16   26.80
  -6   2   4  427.86   26.70
  -6   2   4  439.16   26.00
   6  -2   4  443.96   24.40
  -6   2   4  440.76   23.90
  -6   2   4  430.06   24.10
  -6   2   4  397.66   27.40
  -6   2   4  418.36   26.40
  -6  -2  -4  496.45   28.40
   6  -2   4  435.76   24.40
  -6  -2   4  470.55   25.60
  -6  -2   4  435.66   24.40
  -6  -2   4  441.16   24.50
   6   2   4  444.06   23.80
  -6  -2   4  448.96   26.50
  -6  -2   4  442.66   26.50
  -6  -2   4  440.46   24.80
  -6  -2   4  422.96   25.50
  -6   2  -4  422.06   26.50
  -6  -2   4  440.86   29.00
  -6  -2   4  492.55   24.90
  -6   2  -4  439.76   25.00
   6   2   4  429.86   24.30
  -6  -2   4  461.45   25.90
   6   2   4  432.46   24.20
  -6  -2   4  475.45   29.40
   6  -2  -4  413.56   23.90
  -6  -2   4  463.95   26.00
   6   2   4  452.65   24.00
  -6  -2   4  460.35   24.70
   6   2   4  448.46   24.20
  -6  -2   4  458.95   30.50
   6   2   4  458.25   24.50
  -6  -2   4  422.46   26.40
   6   2   4  445.26   24.10
   6  -2  -4  447.46   24.10
   6   2   4  444.16   24.10
   6  -2  -4  460.05   24.60
   6  -2  -4  436.16   23.60
   6   2   4  449.16   24.20
   6   2   4  434.66   24.40
  -6  -2   4  427.66   24.80
  -6  -2   4  430.56   26.20
  -6  -2   4  446.86   37.10
   6   2   4  440.06   24.00
   6  -2  -4  422.86   24.10
  -6  -2   4  447.66   30.20
   6   2   4  445.46   24.80
   6   2   4  430.36   23.90
  -6  -2   4  389.86   28.00
  -6   2  -4  458.05   25.20
   6   2   4  466.85   24.60
   6   2   4  440.06   24.50
  -6  -2   4  455.55   26.20
   6   2   4  444.16   24.90
   6   2   4  459.95   24.10
   6   2   4  441.86   24.20
  -6   3   4   43.80    3.40
  -6   3   4   57.29    5.80
   6  -3   4   44.40    3.90
  -6   3   4   48.80    3.60
  -6   3   4   49.30    3.40
  -6   3   4   46.40    5.20
   6  -3   4   47.00    3.90
   6   3  -4   47.50    4.00
   6  -3   4   48.00    4.30
   6  -3   4   51.39    3.60
   6  -3   4   49.80    3.90
   6  -3   4   48.40    4.00
  -6   3   4   47.30    3.60
  -6   3   4   53.29    7.40
  -6   3   4   47.00    3.70
  -6   3   4   47.70    4.00
  -6   3   4   45.00    5.70
  -6   3   4   47.40    4.00
  -6   3   4   62.69    5.50
   6  -3   4   48.70    4.10
   6  -3   4   47.30    4.00
   6  -3   4   49.70    5.50
   6  -3   4   47.70    3.80
   6  -3   4   51.39    3.90
  -6   3   4   41.30    5.20
   6  -3   4   48.40    4.30
  -6   3   4   46.60    5.60
   6  -3   4   47.00    3.90
  -6  -3  -4   62.39    7.80
  -6   3   4   47.30    4.20
   6  -3   4   49.40    4.10
  -6   3   4   52.29    6.50
   6  -3   4   48.10    3.90
   6   3   4   49.10    3.80
   6   3   4   45.40    4.60
   6  -3  -4   49.10    3.70
   6   3   4   51.79    3.70
  -6  -3   4   45.70    7.50
   6   3   4   47.60    3.50
   6   3   4   48.10    3.40
  -6   3  -4   46.30    4.70
   6   3   4   46.50    3.60
   6   3   4   56.59    4.10
  -6  -3   4   52.29    8.40
  -6  -3   4   49.99    8.60
   6  -3  -4   50.39    3.60
  -6   3  -4   49.50    4.90
   6   3   4   47.60    3.40
  -6  -3   4   48.00    5.00
  -6  -3   4   48.50    5.80
  -6  -3   4   40.10    4.80
  -6  -3   4   47.90    5.50
   6  -3  -4   51.49    3.70
   6   3   4   48.10    3.60
   6   3   4   48.90    3.40
   6   3   4   49.90    3.80
  -6  -3   4   54.49    5.10
  -6  -3   4   42.00   10.60
   6   3   4   48.90    3.80
  -6  -3   4   51.49    6.30
  -6  -3   4   41.00    4.30
  -6   3  -4   45.60    5.80
   6   3   4   50.09    4.30
  -6  -3   4   47.20    8.00
  -6  -3   4   42.20    5.30
   6  -3  -4   49.99    3.20
  -6   3  -4   45.50    4.40
  -6  -3   4   39.40    4.20
  -6  -3   4   45.30    4.30
   6   3   4   48.60    3.60
   6   3   4   50.69    4.00
   6   3   4   47.20    3.20
  -6  -3   4   44.90    7.20
   6   3   4   48.40    3.50
   6   3   4   60.39    4.40
   6   3   4   49.20    3.40
  -6   4   4   32.90    3.10
   6  -4   4   35.30    2.90
  -6   4   4   32.90    4.90
  -6   4   4   39.70    4.20
   6  -4   4   34.70    3.10
   6  -4   4   32.50    3.60
  -6  -4  -4   29.20    5.80
  -6   4   4   30.40    4.40
  -6   4   4   33.20    4.20
  -6  -4  -4   25.30    5.10
   6  -4   4   34.10    3.10
   6  -4   4   39.60    3.20
  -6   4   4   30.80    2.50
   6  -4   4   33.00    2.90
   6  -4   4   31.80    3.10
  -6   4   4   32.40    2.70
   6  -4   4   35.10    4.50
  -6   4   4   26.90    4.50
   6  -4   4   36.90    2.90
   6  -4   4   31.50    3.10
  -6  -4  -4   21.90    4.80
   6   4  -4   31.80    2.60
   6  -4   4   31.90    3.10
   6   4  -4   29.80    3.00
  -6   4   4   30.60    4.40
  -6   4   4   33.20    2.70
   6  -4  -4   35.40    2.40
   6   4   4   28.80    2.40
  -6   4  -4   49.99    4.40
   6  -4  -4   42.10    2.90
  -6  -4   4   26.60    3.20
   6   4   4   30.30    2.80
  -6  -4   4   28.20    4.30
  -6  -4   4   32.60    9.10
   6   4   4   34.10    2.70
   6   4   4   31.20    2.80
  -6  -4   4   25.30    5.10
  -6  -4   4   32.50    3.40
   6   4   4   31.00    2.60
   6   4   4   30.80    2.50
  -6  -4   4   23.40    4.80
  -6  -4   4   27.50    4.40
  -6  -4   4   27.80    4.60
   6   4   4   34.60    3.50
   6  -4  -4   40.70    3.00
  -6  -4   4   31.70    6.10
   6   4   4   34.90    2.60
  -6  -4   4   24.50    5.30
   6   4   4   33.20    3.10
   6   4   4   29.70    2.30
   6   4   4   32.10    2.50
   6   4   4   31.50    2.50
   6   4   4   30.00    2.60
   6   4   4   31.70    2.70
  -6  -4   4   27.80    5.50
  -6   5   4    1.60    1.10
   6  -5   4    0.90    1.00
   6  -5   4    1.00    1.00
   6  -5   4    1.70    1.10
  -6  -5  -4   -0.40    3.50
  -6   5   4    0.60    1.50
  -6  -5  -4    0.50    5.00
   6  -5   4    2.20    1.10
   6  -5   4    0.40    0.80
   6  -5   4    1.00    0.90
  -6   5   4    1.30    1.40
   6   5  -4    1.20    0.80
   6   5  -4    0.50    0.60
  -6   5   4    1.10    1.80
  -6   5   4    1.30    0.80
  -6  -5  -4   -0.80    2.40
   6  -5   4    1.50    0.70
   6  -5   4    0.70    0.80
  -6   5  -4    0.90    1.70
  -6   5  -4    0.60    1.60
  -6  -5   4   -0.50    2.50
   6   5   4    0.80    0.90
   6   5   4    1.50    0.70
  -6  -5   4    1.70    2.60
   6  -5  -4    1.80    0.90
  -6  -5   4    1.40    2.80
   6   5   4    0.40    0.60
   6   5   4    1.10    0.60
   6   5   4    1.40    0.80
   6   5   4    0.90    0.50
  -6   5  -4    1.30    1.40
   6   5   4    0.80    0.70
   6   5   4    0.60    0.70
   6   5   4    0.70    0.70
  -6  -5   4    0.00    1.90
  -6  -5   4    1.30    2.70
   6   5   4    1.00    0.60
  -6  -5   4   -0.50    3.80
   6  -5  -4    0.30    0.60
   6  -5  -4    2.00    0.90
  -6  -6  -4   91.39   11.60
   6  -6   4  111.49    6.20
  -6  -6  -4   79.39    8.80
  -6   6   4  102.99    6.10
   6   6  -4  100.69    5.80
  -6  -6  -4   93.39    7.50
   6  -6   4  112.79    6.20
   6   6  -4  104.59    5.90
  -6   6   4   87.69    7.20
   6   6  -4  102.99    5.90
   6  -6   4  109.69    6.70
  -6   6   4   99.19    5.80
   6  -6   4  110.39    6.20
  -6  -6   4  104.59    7.80
   6   6   4   94.89    6.00
  -6   6  -4  108.19    6.70
   6   6   4  105.59    5.80
  -6  -6   4   95.99    7.60
   6   6   4  103.09    6.30
  -6  -6   4   95.39    7.70
  -6   6  -4   96.79    6.60
   6  -6  -4  103.69    5.70
  -6   6  -4  106.09    6.60
  -6  -6   4   79.79    9.20
  -6  -6   4   83.79    7.10
   6   6   4  101.29    5.80
   6  -6  -4  122.09    6.10
  -6   0   5  107.99    7.10
  -6   0   5  112.59    7.50
  -6   0   5  124.69    9.30
  -6   1   5    4.70    1.80
  -6   1   5    7.60    4.40
  -6   1   5   10.40    3.60
   6  -1   5    8.90    1.60
   6  -1   5   14.60    1.80
   6  -1   5    8.40    1.50
  -6   1   5   11.80    3.40
  -6   1   5   11.80    2.60
   6  -1   5    7.40    1.60
  -6   1   5   10.60    3.50
  -6   1   5   12.60    3.30
  -6   1   5    9.80    3.40
  -6   1   5   10.20    3.10
   6  -1   5   12.00    2.20
  -6   1   5    8.80    2.00
  -6   1   5   10.60    1.70
  -6   1   5    9.50    1.60
   6  -1   5   14.30    1.70
  -6   1   5   10.90    2.00
   6   1  -5   11.60    1.90
   6  -1   5   11.40    1.70
  -6   1   5    7.40    2.60
   6  -1   5    9.80    1.60
  -6   1   5    6.50    1.30
   6  -1   5    8.10    1.50
  -6   1   5    9.20    1.70
  -6  -1  -5    5.80    3.00
   6  -1   5    6.30    1.60
  -6  -1  -5    9.80    3.50
   6  -1   5    7.70    1.60
   6  -1   5   11.40    2.10
  -6   1   5    8.50    1.40
   6  -1   5   10.80    2.00
  -6   1   5    9.50    1.90
  -6   1   5    3.20    5.30
  -6  -1  -5    6.50    3.60
   6  -1   5   14.30    2.00
  -6   1   5   10.10    2.30
  -6   1   5   10.80    1.70
  -6   1   5   11.00    4.50
   6  -1   5   14.00    2.10
  -6   1   5    9.70    2.30
   6   1   5    6.80    2.00
  -6  -1   5    9.20    1.70
  -6  -1   5    9.20    2.50
   6   1   5   10.00    1.40
   6   1   5   10.80    1.50
  -6  -1   5    9.80    2.10
   6   1   5    9.30    1.50
  -6  -1   5   11.60    1.90
   6  -1  -5    9.90    1.80
  -6  -1   5    7.30    3.90
  -6   1  -5   11.20    3.60
   6   1   5    8.00    1.50
   6   1   5   11.70    1.70
   6   1   5   10.50    2.10
  -6  -1   5    9.40    2.80
  -6  -1   5    9.50    6.20
  -6  -1   5   11.20    2.80
  -6  -1   5    8.50    4.80
  -6  -1   5    7.30    3.40
   6   1   5    8.30    1.50
  -6  -1   5    6.50    2.10
  -6  -1   5   11.50    2.20
   6   1   5   13.10    1.80
  -6  -1   5    6.90    2.80
  -6  -1   5    7.40    2.60
   6   1   5   10.60    1.90
  -6  -1   5    8.30    3.30
  -6  -1   5   11.10    1.90
  -6  -1   5   12.10    3.00
  -6  -1   5    9.90    1.60
   6   1   5    8.20    1.40
  -6  -1   5   12.00    3.50
   6   1   5    8.70    1.50
  -6  -1   5    8.20    3.60
  -6  -1   5   13.70    2.30
   6   1   5    7.20    1.50
  -6  -1   5    9.70    2.10
   6   1   5    9.80    1.60
   6   1   5    7.80    1.70
   6   1   5    8.90    1.40
   6   1   5    9.60    1.50
   6  -2   5   19.30    2.30
  -6   2   5   19.80    5.10
   6  -2   5   23.60    2.60
  -6   2   5   20.00    2.70
   6  -2   5   19.50    2.30
  -6  -2  -5   14.30    4.20
   6  -2   5   20.50    2.70
  -6   2   5   20.40    4.20
  -6   2   5   17.80    2.00
  -6   2   5   19.40    2.10
  -6   2   5   18.10    2.80
  -6   2   5   17.70    3.10
  -6   2   5   20.50    2.10
  -6   2   5   19.10    3.70
  -6   2   5   19.50    2.30
  -6  -2  -5   13.50    3.60
   6  -2   5   23.90    2.20
   6  -2   5   19.10    2.40
  -6   2   5   18.10    2.50
   6  -2   5   22.10    2.60
   6  -2   5   20.00    2.40
  -6   2   5   21.30    2.10
  -6   2   5   15.70    4.20
  -6   2   5   19.40    4.10
  -6   2   5   14.30    3.50
   6   2  -5   20.00    2.40
   6  -2   5   19.50    2.50
  -6   2   5   17.70    2.00
   6  -2   5   18.30    2.30
   6  -2   5   19.40    2.40
   6  -2   5   19.40    2.30
  -6   2   5   20.90    2.40
   6  -2   5   19.40    2.50
  -6   2   5   21.00    2.20
  -6  -2  -5   19.20    7.10
  -6   2   5   15.30    3.50
   6  -2   5   17.30    2.40
  -6   2   5   22.30    2.80
  -6   2   5   19.90    4.10
   6   2   5   23.80    2.10
   6  -2  -5   22.40    2.50
   6  -2  -5   19.30    2.00
   6   2   5   22.90    2.50
   6   2   5   19.60    2.10
   6   2   5   19.10    2.10
  -6   2  -5   20.90    3.10
   6   2   5   21.70    1.90
  -6  -2   5   14.30    3.40
  -6   2  -5   15.60    2.80
  -6  -2   5   18.00    3.50
   6   2   5   22.50    2.20
   6   2   5   18.80    1.90
  -6  -2   5   20.50    2.60
   6   2   5   19.00    2.20
  -6  -2   5   17.30    3.80
   6   2   5   22.90    2.30
  -6  -2   5   20.00    3.50
  -6  -2   5   17.80    3.90
   6   2   5   21.20    2.00
   6  -2  -5   21.10    2.20
  -6  -2   5   21.10    2.60
   6   2   5   20.50    2.40
  -6  -2   5    9.40    5.40
   6   2   5   19.60    2.60
  -6  -2   5   17.90    2.60
  -6  -2   5   14.60    3.70
  -6  -2   5   21.80    5.20
  -6  -2   5   20.50    2.80
  -6  -2   5   25.50    3.90
  -6  -2   5   24.20    2.40
   6   2   5   11.50    2.40
   6   2   5   17.80    1.90
  -6  -2   5   23.10    3.10
  -6  -2   5   20.30    6.20
   6   2   5   18.90    2.00
  -6  -2   5   16.70    4.00
  -6  -2   5   21.40    5.70
   6   2   5   20.20    2.00
  -6  -2   5   20.30    4.40
  -6  -2   5   20.20    2.60
   6   2   5   19.00    2.50
  -6   2  -5   19.80    3.80
   6  -2  -5   20.40    2.10
  -6  -2   5   19.90    3.70
  -6  -2   5   20.00    5.80
   6  -2  -5   17.20    1.70
  -6   3   5    7.90    2.70
  -6   3   5    9.80    1.50
  -6   3   5    7.80    1.70
   6  -3   5    7.30    1.50
   6  -3   5    6.90    1.60
  -6   3   5    6.70    2.50
  -6   3   5    9.80    2.10
  -6   3   5    5.40    1.60
   6   3  -5   10.30    1.70
   6  -3   5    9.90    1.90
   6  -3   5    7.50    1.60
  -6   3   5    7.80    2.90
   6  -3   5    9.00    1.80
  -6   3   5    7.40    1.30
   6  -3   5    8.70    1.60
  -6   3   5    7.40    1.30
  -6   3   5    6.60    2.70
  -6   3   5    7.20    2.80
  -6   3   5    9.00    1.60
   6  -3   5    8.70    1.70
   6  -3   5   10.10    1.80
   6  -3   5    9.90    1.90
   6  -3   5    6.60    1.30
  -6   3   5    9.30    1.50
  -6   3   5    5.20    3.30
  -6   3   5    8.00    1.50
  -6   3   5    5.20    1.20
  -6   3   5    8.00    1.50
   6  -3   5    6.80    1.50
   6  -3   5    8.90    1.70
   6  -3   5   10.10    2.00
  -6  -3  -5    5.80    3.10
  -6  -3  -5    8.70    3.90
   6  -3   5    6.80    1.50
   6   3   5   10.00    1.90
   6  -3  -5    7.50    1.30
   6   3   5    9.50    1.20
   6   3   5    7.20    1.40
  -6  -3   5    9.20    1.90
   6  -3  -5    7.80    1.10
   6  -3  -5    6.50    1.20
  -6  -3   5   10.70    2.60
   6   3   5    8.10    1.50
  -6   3  -5    5.80    2.40
  -6   3  -5    7.20    2.10
   6   3   5   11.50    1.80
  -6  -3   5    8.80    6.20
   6   3   5    7.60    2.10
  -6  -3   5    9.40    4.30
  -6  -3   5    3.60    3.90
  -6   3  -5    6.60    1.80
  -6  -3   5    6.50    2.60
  -6  -3   5    9.80    2.30
  -6  -3   5    5.50    3.30
  -6  -3   5    7.70    3.80
   6  -3  -5    8.10    1.50
   6   3   5   12.20    1.90
  -6  -3   5    5.10    2.80
  -6  -3   5   11.70    2.90
  -6  -3   5   11.60    2.20
   6   3   5    9.00    1.30
  -6  -3   5    5.70    2.50
  -6  -3   5    9.90    1.80
  -6  -3   5    6.60    2.80
   6   3   5    5.90    1.00
  -6   3  -5    5.30    2.10
   6   3   5    8.70    1.40
  -6  -3   5    5.90    2.80
  -6  -3   5    8.80    3.40
   6   3   5    9.60    1.40
   6   3   5    9.60    1.50
   6   3   5   12.00    2.00
  -6  -3   5   13.00    2.90
  -6  -3   5   11.50    2.20
   6   3   5    7.50    1.30
   6   3   5    7.70    1.20
   6   3   5    7.70    1.50
   6   3   5    8.60    1.40
   6  -4   5   71.69    4.80
   6  -4   5   71.19    4.90
   6  -4   5   73.29    5.20
   6  -4   5   69.99    4.80
   6  -4   5   69.39    4.80
   6  -4   5   81.59    5.00
  -6   4   5   71.59    6.10
  -6   4   5   70.09    4.50
  -6   4   5   67.59    4.40
   6  -4   5   68.29    4.70
   6  -4   5   78.69    6.40
  -6   4   5   54.29    6.30
   6  -4   5   69.39    4.50
   6   4  -5   70.09    4.40
  -6   4   5   61.19    4.90
  -6   4   5   58.59    4.40
  -6   4   5   61.59    4.40
   6  -4   5   76.89    5.00
  -6   4   5   65.09    6.40
   6  -4   5   79.89    5.10
  -6   4   5   70.29    4.90
   6  -4   5   79.29    4.80
  -6   4   5   70.49    6.00
  -6   4   5   68.09    4.40
   6   4   5   70.79    4.50
  -6  -4   5   66.19    7.60
   6   4   5   69.59    4.50
  -6  -4   5   67.69    6.00
  -6   4  -5   88.99    6.00
   6   4   5   68.29    4.30
  -6  -4   5   63.39    5.70
   6  -4  -5   70.59    4.20
  -6  -4   5   57.59   10.00
   6  -4  -5   82.09    4.70
  -6  -4   5   69.69    6.50
  -6  -4   5   61.89    6.00
   6   4   5   66.59    4.60
   6   4   5   68.99    4.30
  -6  -4   5   68.09    7.80
  -6  -4   5   62.09    4.90
  -6  -4   5   67.89    6.40
  -6   4  -5   89.99    5.80
   6   4   5   70.89    4.70
  -6  -4   5   54.79    7.20
  -6  -4   5   68.09    6.90
   6   4   5   69.19    5.30
   6   4   5   70.29    4.50
  -6   4  -5   85.39    5.40
   6   4   5   62.29    4.10
  -6  -4   5   68.49    7.30
   6   4   5   62.89    4.30
   6   4   5   68.09    4.30
   6   4   5   75.89    4.80
   6  -4  -5   82.79    4.60
  -6  -4   5   57.89    4.90
  -6   5   5    1.50    1.40
   6  -5   5    1.40    0.90
  -6   5   5    1.30    0.60
   6  -5   5    3.10    1.00
  -6  -5  -5    2.20    4.60
   6  -5   5    2.10    1.00
   6  -5   5    1.60    1.00
  -6   5   5    1.50    1.00
  -6   5   5    1.80    0.70
  -6   5   5    2.40    1.40
  -6  -5  -5    1.60    2.00
  -6  -5  -5    0.60    2.80
  -6   5   5    3.30    1.60
  -6   5   5    2.00    0.80
   6   5  -5    1.90    0.70
   6   5  -5    1.20    0.70
   6   5  -5    2.10    0.70
   6  -5   5    2.90    1.00
   6  -5   5    1.40    0.70
   6  -5  -5    1.90    0.60
   6  -5  -5    1.70    0.80
  -6   5  -5    1.70    1.60
  -6  -5   5    1.50    3.10
  -6  -5   5    1.60    2.00
   6   5   5    0.90    0.70
  -6  -5   5    1.00    2.10
   6   5   5    1.60    0.50
   6  -5  -5    2.70    0.80
  -6  -5   5    0.90    2.20
  -6   5  -5    2.30    1.50
  -6   5  -5    1.00    1.20
   6   5   5    1.60    0.90
   6   5   5    1.80    0.70
  -6  -5   5    1.80    1.90
   6   5   5    3.20    0.70
   6   5   5    1.90    0.50
  -6  -5   5    1.50    1.60
   6   5   5    1.60    0.50
   6   5   5    0.90    0.50
   6   0   6    0.50    0.70
   6   0   6   -1.60    1.30
  -6   0   6   -2.50    3.50
   6   0   6    0.10    0.80
  -6   0   6    0.50    1.10
  -6   0   6    7.10    4.00
  -6   0   6   -0.60    2.40
   6   0   6    1.20    1.10
   6   0   6   -0.80    1.00
   6   0   6    0.50    0.80
   6   0   6    0.00    0.80
  -6   0   6   -0.40    2.30
  -6   0   6    2.10    2.00
   6   0   6    0.40    0.70
  -6   0   6    0.40    0.80
  -6   0   6    0.70    0.80
  -6   0   6    1.40    1.40
  -6   0   6    0.80    2.00
  -6   0  -6   -2.60    2.20
   6   0   6    0.30    0.80
  -6   0   6    0.90    1.00
   6   0  -6    0.30    1.00
  -6   0   6    1.90    2.10
   6   0   6    0.90    0.90
  -6   0   6    0.60    1.10
   6   0   6    0.40    0.90
  -6   0   6    0.80    1.00
   6   0   6   -1.40    1.10
  -6   0   6    4.20    1.30
   6   0   6    0.50    1.00
  -6   0   6    3.10    2.00
  -6   0   6    1.70    1.40
   6   0   6    1.30    1.00
  -6   0   6    0.90    1.90
  -6   1   6   42.20    5.00
   6  -1   6   44.50    3.50
  -6   1   6   23.90    6.20
  -6   1   6   43.00    3.60
   6  -1   6   43.00    3.50
   6  -1   6   46.50    3.60
   6  -1   6   45.30    3.70
   6  -1   6   45.70    3.50
   6  -1   6   46.60    3.70
  -6   1   6   43.40    5.40
  -6   1   6   43.10    3.30
  -6   1   6   40.40    6.70
  -6   1   6   42.80    4.10
  -6   1   6   33.00    5.40
   6  -1   6   44.80    3.50
  -6   1   6   48.40    3.50
  -6   1   6   37.90    5.60
  -6   1   6   45.60    4.00
  -6   1   6   45.40    3.40
  -6   1   6   46.30    5.20
  -6   1   6   46.10    3.70
  -6   1   6   43.30    3.50
  -6   1   6   50.09    6.80
   6  -1   6   46.60    3.60
  -6   1   6   42.90    3.80
   6  -1   6   48.30    3.70
  -6   1   6   46.60    3.30
   6  -1   6   37.00    3.50
   6  -1   6   50.29    3.40
   6   1   6   32.80    3.20
  -6  -1   6   44.20    3.70
   6   1   6   47.90    3.30
  -6  -1   6   43.10    3.50
  -6  -1   6   43.10    3.80
  -6  -1   6   45.60    3.60
  -6  -1   6   44.30    5.70
  -6  -1   6   43.50    6.10
  -6  -1   6   37.90    5.70
  -6  -1   6   46.40    5.00
   6   1   6   41.30    4.00
  -6  -1   6   44.30    5.50
   6   1   6   44.90    3.30
  -6  -1   6   43.00    4.30
   6   1   6   46.10    3.80
   6   1   6   48.50    3.40
  -6  -1   6   46.30    4.80
  -6  -1   6   51.49    6.40
  -6  -1   6   48.00    3.70
   6   1   6   46.80    3.30
   6   1   6   47.50    3.30
   6   1   6   46.60    3.40
  -6  -1   6   45.30    3.90
   6   1   6   33.90    3.30
   6   1   6   44.00    3.40
  -6  -1   6   44.30    5.10
  -6  -1   6   36.10    6.00
   6   1   6   44.70    3.40
   6   1   6   41.90    3.70
  -6  -1   6   44.40    3.30
  -6   2   6  294.07   16.20
   6  -2   6  300.97   16.80
   6  -2   6  303.37   16.60
   6  -2   6  293.77   16.60
  -6   2   6  312.17   18.30
  -6  -2  -6  275.07   19.30
  -6   2   6  284.57   16.10
  -6   2   6  253.47   18.20
  -6   2   6  271.37   16.90
   6  -2   6  304.97   16.50
  -6   2   6  269.67   19.00
   6  -2   6  308.97   16.70
  -6   2   6  299.77   17.00
  -6   2   6  274.07   16.10
   6  -2   6  321.57   16.70
  -6   2   6  283.77   16.40
   6  -2   6  331.97   17.10
  -6   2   6  291.47   18.30
  -6   2   6  308.87   16.40
  -6   2   6  299.77   16.20
   6  -2   6  305.57   16.50
   6  -2   6  295.47   16.70
  -6   2   6  280.47   16.30
  -6   2   6  294.97   16.50
  -6   2   6  283.97   16.70
   6  -2   6  301.97   16.60
   6  -2   6  324.47   16.30
  -6   2   6  252.97   18.40
   6   2   6  313.37   16.70
   6   2   6  310.17   16.30
  -6  -2   6  272.37   16.20
  -6  -2   6  306.27   17.90
  -6  -2   6  279.47   17.40
  -6  -2   6  288.57   16.70
   6   2   6  303.37   16.20
  -6  -2   6  278.87   16.70
  -6  -2   6  263.67   19.80
   6   2   6  298.77   16.20
  -6  -2   6  286.07   17.40
  -6  -2   6  285.47   21.00
   6   2   6  295.97   16.30
   6   2   6  301.87   16.60
  -6  -2   6  292.57   18.30
   6   2   6  303.97   16.20
   6   2   6  300.87   16.10
  -6  -2   6  285.97   16.60
   6   2   6  304.57   16.70
   6   2   6  299.67   16.20
  -6  -2   6  289.27   17.70
  -6  -2   6  294.67   16.60
  -6  -2   6  302.07   18.40
  -6  -2   6  265.47   18.70
   6   2   6  312.67   16.50
   6   2   6  269.37   16.80
  -6  -2   6  287.27   18.50
  -6  -2   6  285.57   18.00
   6   2   6  297.27   16.20
  -6  -2   6  279.67   16.40
  -6   3   6   28.00    2.50
   6  -3   6   29.10    2.90
   6  -3   6   33.20    2.90
  -6   3   6   31.80    2.50
   6  -3   6   30.90    3.00
  -6   3   6   21.20    3.50
  -6   3   6   29.20    2.50
  -6   3   6   24.40    4.00
  -6   3   6   27.70    2.90
   6  -3   6   32.90    2.70
   6  -3   6   30.00    2.60
   6  -3   6   32.20    2.70
  -6   3   6   29.10    2.40
  -6   3   6   27.30    2.80
  -6   3   6   27.90    4.20
   6  -3   6   28.70    2.30
  -6   3   6   28.20    2.30
   6  -3   6   28.20    2.60
   6  -3   6   29.60    2.50
   6  -3   6   30.80    2.80
   6  -3   6   30.20    2.50
  -6   3   6   28.30    4.00
  -6   3   6   26.70    2.20
  -6   3   6   27.40    2.40
  -6   3   6   26.90    2.30
  -6   3   6   28.80    2.90
   6   3   6   31.50    2.30
  -6  -3   6   29.80    4.00
  -6  -3   6   30.70    3.40
   6   3   6   31.80    2.20
   6  -3  -6   29.80    2.30
   6   3   6   30.90    2.60
  -6  -3   6   26.80    4.80
  -6  -3   6   27.30    3.50
  -6   3  -6   25.80    3.00
   6  -3  -6   29.00    2.00
   6   3   6   30.00    2.60
  -6  -3   6   28.00    3.00
   6   3   6   29.20    2.20
  -6  -3   6   30.90    4.30
  -6  -3   6   25.50    2.80
   6   3   6   31.70    2.50
   6   3   6   30.90    2.20
  -6  -3   6   25.20    4.60
  -6  -3   6   24.50    4.10
  -6  -3   6   21.40    4.70
  -6  -3   6   30.30    3.80
  -6  -3   6   27.00    4.20
  -6  -3   6   27.60    3.70
  -6  -3   6   26.70    2.40
   6   3   6   35.20    3.00
  -6  -3   6   25.90    3.30
   6   3   6   31.30    2.40
   6   3   6   30.70    2.70
   6  -3  -6   31.00    2.40
   6   3   6   31.90    2.30
  -6   3  -6   26.20    3.20
  -6  -3   6   28.00    2.90
  -6  -3   6   29.90    2.90
   6   4  -6   24.90    1.90
  -6  -4  -6   19.90    6.50
  -6   4   6   23.20    2.40
  -6   4   6   22.50    2.00
   6   4  -6   26.40    2.00
   6  -4   6   24.60    2.10
  -6   4   6   22.40    3.20
  -6   4   6   24.80    1.90
   6  -4   6   25.10    2.40
   6  -4   6   22.00    2.20
  -6   4   6   22.60    1.90
   6  -4   6   24.30    2.20
   6  -4   6   24.30    2.00
  -6   4   6   22.70    1.90
  -6   4   6   18.00    2.20
  -6   4   6   18.50    3.00
   6  -4   6   27.50    2.30
   6  -4   6   23.70    1.90
   6  -4   6   26.70    2.20
  -6   4  -6   23.60    2.70
   6  -4  -6   24.60    1.90
  -6  -4   6   21.20    3.10
   6   4   6   23.60    2.00
  -6  -4   6   16.40    3.40
   6   4   6   23.30    1.80
  -6  -4   6   21.20    2.30
   6   4   6   26.70    2.20
  -6  -4   6   23.20    2.40
   6  -4  -6   25.10    2.00
   6   4   6   23.70    1.80
   6  -4  -6   25.80    1.70
   6   4   6   23.90    1.80
   6   4   6   23.20    2.00
  -6  -4   6   18.50    3.20
   6   4   6   24.10    1.90
   6   4   6   24.10    2.00
   6   4   6   21.90    1.70
  -6  -4   6   26.40    3.40
  -6  -4   6   15.50    3.40
  -6  -4   6   18.20    2.60
  -6  -4   6   24.90    3.10
   6   4   6   20.80    1.60
  -6   4  -6   20.70    2.60
   6   4   6   24.50    1.80
  -6   0   7   -0.10    0.90
  -6   0   7    0.00    0.80
  -6   0   7    0.00    0.70
   6   0   7    0.90    0.80
  -6   0   7    0.50    0.60
   6   0   7    0.20    0.50
   6   0   7   -0.20    0.70
  -6   0   7    2.10    2.30
  -6   0   7   -0.10    1.60
   6   0   7    0.00    0.70
  -6   0   7    0.50    1.80
  -6   0   7    0.50    1.20
  -6   0   7   -0.10    0.90
  -6   0   7   -0.30    1.50
   6   0   7   -0.80    0.80
   6   0   7    0.20    0.60
  -6   0   7    0.50    2.10
   6   0   7    0.00    0.70
  -6   0   7    0.00    0.70
  -6   0   7   -0.10    0.80
  -6   0   7    0.40    1.60
  -6   0   7   -2.70    3.20
  -6   0   7   -0.30    0.90
  -6   0   7   -2.80    2.60
   6   0   7    0.10    0.60
  -6   1   7    1.40    0.80
  -6   1   7    1.10    1.00
   6  -1   7    1.40    0.70
  -6   1   7    2.80    2.40
   6  -1   7    3.50    1.10
  -6   1   7    1.20    0.70
   6  -1   7    1.20    0.90
  -6   1   7    1.40    1.60
  -6   1   7    0.90    0.70
  -6   1   7    1.30    0.80
  -6   1   7    2.20    1.40
   6  -1   7   -0.20    1.00
  -6   1   7    2.30    1.80
  -6   1   7    2.60    1.90
   6  -1   7    1.10    0.60
  -6   1   7    0.70    0.90
  -6   1   7    2.20    2.60
   6  -1   7    2.30    0.90
   6  -1   7    0.50    0.70
  -6   1   7    1.20    1.00
  -6   1   7    1.30    0.90
   6  -1   7    0.30    1.00
  -6  -1  -7    0.80    2.30
  -6   1   7    1.90    1.90
  -6  -1   7    1.80    0.90
  -6  -1   7    0.30    2.70
   6   1   7    2.70    0.70
  -6  -1   7    1.40    1.00
   6   1   7    2.40    1.00
  -6  -1   7    2.00    1.70
  -6  -1   7    0.80    0.80
  -6  -1   7    1.20    0.90
  -6  -1   7    2.80    1.30
   6   1   7   -0.10    1.00
   6   1   7    2.40    0.90
  -6   1  -7   -2.50    2.20
  -6  -1   7    1.70    1.90
  -6  -1   7    0.60    1.70
   6   1   7    0.90    0.70
  -6  -1   7    1.80    1.70
   6   1   7    1.70    0.60
  -6  -1   7    1.60    1.80
   6   1   7    2.30    0.70
   6   1   7    3.20    1.00
  -6  -1   7    2.00    2.00
  -6  -1   7   -0.60    2.40
  -6  -1   7    2.50    1.00
   6   1   7    0.20    0.90
  -6  -1   7    0.90    1.10
  -6   2   7   53.29    3.90
  -6   2   7   50.89    4.90
  -6   2   7   43.80    3.70
  -6   2   7   46.60    3.50
  -6   2   7   47.20    3.70
  -6   2   7   42.70    4.80
   6  -2   7   49.90    3.40
  -6   2   7   55.09    3.50
   6  -2   7   52.99    3.30
  -6   2   7   50.79    3.30
  -6   2   7   49.99    3.40
  -6   2   7   49.30    3.30
   6  -2   7   54.99    3.70
  -6   2   7   49.40    3.50
   6  -2   7   53.29    3.50
  -6   2   7   48.30    3.30
   6  -2   7   53.29    3.60
  -6  -2   7   47.80    5.50
   6   2   7   51.09    3.20
  -6  -2   7   47.40    4.40
  -6  -2   7   45.40    3.60
  -6  -2   7   39.90    4.80
   6   2   7   53.09    3.50
  -6  -2   7   44.00    4.00
   6   2   7   54.59    3.30
   6   2   7   51.49    3.50
  -6  -2   7   50.99    3.70
  -6  -2   7   51.09    4.50
   6   2   7   55.79    3.30
   6   2   7   51.89    3.60
   6   2   7   53.59    3.70
  -6  -2   7   46.20    3.40
  -6  -2   7   49.80    5.30
  -6  -2   7   50.29    4.80
  -6  -2   7   44.50    3.50
  -6  -2   7   51.99    4.30
  -6  -2   7   47.50    3.70
   6   2   7   51.59    3.30
   7   1   0  226.68   13.30
  -7  -1   0  241.58   16.50
  -7  -1   0  238.08   14.80
  -7  -1   0  238.68   14.80
   7  -1   0  225.98   13.10
  -7   1   0  242.98   17.20
  -7  -1   0  224.68   16.40
   7   1   0  229.28   13.10
   7  -1   0  234.58   13.30
  -7   1   0  241.28   14.90
   7   1   0  236.18   12.80
   7  -1   0  221.28   13.30
  -7  -1   0  244.28   15.00
   7   1   0  230.38   13.00
  -7  -1   0  228.38   17.20
  -7   1   0  233.28   14.70
  -7  -1   0  235.98   22.10
  -7   1   0  232.38   16.50
  -7  -1   0  229.38   17.20
  -7   1   0  237.88   14.60
   7  -1   0  230.68   12.80
   7   1   0  242.68   13.30
  -7  -1   0  244.98   17.50
  -7   1   0  251.37   17.20
   7  -1   0  229.18   13.20
  -7   1   0  237.68   14.50
  -7   1   0  244.48   16.30
   7  -2   0    0.40    0.80
  -7   2   0   -0.40    1.50
   7  -2   0    0.00    0.80
   7  -2   0    0.30    0.70
  -7  -2   0   -1.10    2.90
   7  -2   0    0.20    0.80
  -7   2   0    2.40    3.40
  -7   2   0    1.10    1.90
   7   2   0    0.50    0.70
  -7  -2   0    0.10    2.60
  -7  -2   0    1.80    2.50
  -7   2   0    0.70    1.30
   7   2   0    0.50    0.60
   7  -2   0    0.90    0.80
  -7   2   0    1.50    2.00
   7  -2   0    0.10    0.60
  -7   2   0    0.40    1.80
  -7  -2   0   -1.30    2.90
  -7  -2   0    0.20    5.30
  -7  -2   0   -1.30    2.90
   7  -2   0    0.30    0.60
   7   2   0   -0.20    0.50
  -7   2   0   -0.70    2.30
  -7  -2   0    0.20    3.20
  -7  -2   0    1.00    2.00
  -7  -3   0  637.24   39.80
  -7  -3   0  683.33   37.20
  -7  -3   0  667.03   40.00
   7   3   0  631.14   36.30
  -7  -3   0  674.23   40.10
   7  -3   0  645.34   35.70
   7   3   0  663.93   36.20
   7  -3   0  669.73   35.40
  -7  -3   0  575.24   38.70
   7  -3   0  722.33   36.00
  -7  -3   0  703.13   39.40
  -7   3   0  626.64   37.10
   7  -3   0  673.23   36.00
  -7   3   0  648.94   39.10
  -7   3   0  658.33   36.90
  -7  -3   0  653.13   39.30
   7  -3   0  683.93   35.80
  -7   3   0  711.33   37.30
  -7   3   0  696.03   37.40
  -7  -3   0  641.04   45.20
   7   3   0  660.33   35.80
   7  -3   0  696.13   35.90
   7  -3   0  657.83   35.90
  -7   3   0  715.03   37.40
  -7   4   0    3.60    2.30
   7  -4   0    0.20    0.80
   7  -4   0   -0.30    0.80
  -7   4   0    1.60    2.70
   7  -4   0    0.40    0.60
   7  -4   0    0.00    0.80
   7   4   0    0.00    0.80
  -7  -4   0    0.80    3.10
  -7  -4   0   -0.50    2.60
   7  -4   0    0.10    0.70
   7   4   0    1.70    0.90
  -7  -4   0    1.60    2.80
  -7  -4   0   -0.10    3.10
  -7  -4   0    0.50    4.60
  -7   4   0   -0.30    1.40
   7  -4   0    2.10    1.00
   7   4   0    0.60    0.80
  -7   4   0   -1.30    2.00
  -7  -4   0   -0.30    2.90
  -7  -4   0    1.40    3.10
  -7   4   0    0.30    1.60
   7  -4   0    0.10    0.70
   7  -4   0    0.70    0.60
  -7   5   0   11.20    2.40
  -7  -5   0    7.70    3.50
  -7  -5   0    8.20    5.30
   7   5   0   11.10    1.30
   7  -5   0   12.40    1.80
   7  -5   0   11.80    1.50
  -7  -5   0    8.80    4.90
   7  -5   0   12.70    1.50
  -7   5   0    7.40    2.60
   7  -5   0   10.10    1.60
  -7  -5   0    9.40    3.20
   7  -5   0   13.10    1.70
  -7  -5   0   10.40    3.90
  -7   5   0   12.70    2.60
  -7  -6   0    0.50    1.80
   7  -6   0    0.50    0.70
   7  -6   0    0.70    0.70
  -7  -6   0    1.10    3.10
   7  -6   0    1.20    0.70
   7   6   0    0.70    0.50
  -7  -6   0    0.70    2.80
   7   6   0    0.30    0.70
  -7   0  -1    1.00    3.40
   7   0  -1    0.00    0.70
  -7   0   1    4.40    4.00
   7   0   1   -0.70    0.60
  -7   0   1   -0.80    2.00
  -7   0   1    2.10    1.80
  -7   0   1   -0.20    1.60
  -7   0   1    0.20    2.80
  -7   0   1   -0.20    2.70
  -7   0  -1    8.80    3.60
  -7   0   1    0.20    1.80
  -7   0   1   -0.90    3.20
  -7   0  -1    1.90    1.90
   7   0   1    0.10    0.70
   7   0  -1   -0.10    0.50
  -7   0  -1    4.00    2.70
   7   0  -1    0.70    0.70
   7   0   1    0.10    0.60
   7   0  -1    0.10    0.70
   7   0   1    0.40    0.60
  -7   0  -1    3.60    5.20
  -7   0  -1    0.80    1.90
  -7   0  -1   -0.70    3.50
  -7   0  -1    2.40    3.00
   7   0   1    0.10    0.80
  -7   0  -1   -0.70    1.80
   7   0   1    0.20    0.70
  -7   0   1    0.50    2.20
   7  -1   1   53.29    3.70
   7   1  -1   52.79    3.60
   7  -1   1   49.20    3.70
   7  -1   1   47.20    3.30
  -7  -1  -1   54.19   11.30
   7  -1   1   53.59    3.60
  -7  -1  -1   58.49    8.10
   7  -1   1   47.70    3.70
  -7   1   1   51.39    5.00
  -7   1   1   44.70    5.10
  -7   1   1   51.99    7.00
   7  -1   1   51.09    3.90
  -7   1   1   48.10    4.90
  -7  -1  -1   54.09    7.50
  -7   1   1   43.40    5.40
   7  -1   1   48.90    3.70
  -7  -1  -1   45.10    5.30
   7  -1   1   51.79    3.70
  -7   1   1   49.00    5.30
  -7  -1  -1   46.00    6.20
  -7   1   1   45.10    6.80
  -7  -1  -1   53.19    6.60
  -7   1   1   50.69    5.20
  -7  -1  -1   49.50    7.10
   7   1  -1   49.80    3.30
   7  -1   1   53.79    3.60
   7   1  -1   48.50    3.50
  -7  -1  -1   50.09    5.00
  -7  -1  -1   34.70    5.90
  -7   1   1   54.59    8.20
   7   1  -1   48.00    3.70
   7  -1  -1   60.49    3.80
  -7  -1   1   51.79    5.60
  -7   1  -1   51.49    5.20
  -7  -1   1   74.39   12.50
   7   1   1   55.49    4.00
   7  -1  -1   48.90    3.60
  -7   1  -1   57.29    8.10
  -7  -1   1   47.70    7.30
   7   1   1   51.09    3.50
  -7   1  -1   69.79    5.60
  -7   1  -1   56.49    6.60
  -7  -1   1   55.09    5.90
  -7  -1   1   48.40    7.70
  -7  -1   1   49.40    6.90
  -7   1  -1   50.39    5.10
  -7   1  -1   54.29    7.80
  -7   1  -1   49.10    6.40
   7   1   1   52.59    3.80
   7   1   1   52.29    3.50
  -7   1  -1   50.29    7.00
   7   1   1   49.80    3.30
   7  -1  -1   58.99    3.30
   7   1   1   51.09    3.60
   7   1   1   50.49    3.80
  -7  -1   1   55.69    8.40
  -7  -1   1   45.00    7.60
   7  -1  -1   47.40    3.70
  -7   1  -1   55.99   10.30
  -7   1  -1   49.70    4.70
  -7  -1   1   53.29    5.10
  -7  -1   1   52.19    5.70
  -7   2   1   -1.20    1.70
   7  -2   1    0.70    0.60
  -7  -2  -1    3.40    2.10
  -7   2   1    1.20    1.50
  -7   2   1    0.10    1.40
  -7   2   1    0.80    2.00
   7  -2   1    1.50    0.90
   7   2  -1    0.80    0.80
  -7  -2  -1    0.10    3.20
  -7   2   1    1.50    1.90
   7  -2   1    0.20    0.80
  -7   2   1    1.90    1.70
  -7  -2  -1   -0.80    3.30
  -7  -2  -1   -0.10    5.00
   7   2  -1    0.00    0.70
  -7  -2  -1   -0.70    2.70
   7  -2   1    0.10    0.80
   7  -2   1    1.30    0.80
   7  -2   1    0.50    0.60
  -7  -2  -1    5.50    3.40
   7  -2   1    0.30    0.70
   7  -2   1    0.20    0.90
  -7  -2  -1    1.40    2.90
  -7   2   1    0.90    2.60
   7  -2  -1    0.30    0.60
  -7  -2   1    3.00    3.00
  -7   2  -1    3.00    3.40
   7   2   1    3.80    1.10
   7  -2  -1    1.40    0.70
  -7   2  -1    7.60    3.60
   7  -2  -1    0.60    0.70
   7   2   1    2.00    0.90
  -7  -2   1    0.50    3.20
   7   2   1    2.50    1.00
   7   2   1    2.00    0.70
  -7  -2   1   -1.50    1.90
  -7  -2   1   -1.10    2.70
  -7   2  -1    2.10    1.60
  -7  -2   1    0.70    3.30
  -7  -2   1    0.80    2.30
  -7   2  -1   -0.10    3.50
   7   2   1    0.70    0.60
   7  -2  -1   -0.10    0.60
  -7   2  -1    5.20    2.00
   7   2   1    3.30    0.80
   7   2   1    1.60    0.80
  -7  -2   1    1.80    3.60
   7  -2  -1    0.30    0.80
  -7  -2   1    1.90    5.40
   7  -3   1   11.50    1.80
  -7   3   1   14.40    3.00
  -7   3   1    9.40    3.90
  -7  -3  -1   10.80    3.70
   7  -3   1   12.40    1.70
   7  -3   1   11.90    1.80
  -7   3   1   11.40    2.90
  -7   3   1   12.30    1.80
  -7   3   1   10.10    2.50
   7  -3   1   12.20    1.80
  -7  -3  -1   12.60    7.10
  -7  -3  -1    9.10    4.50
  -7  -3  -1   16.50    5.10
   7  -3   1   13.00    2.00
   7  -3   1   12.70    1.70
   7  -3   1   13.50    1.40
  -7  -3  -1    9.20    4.20
  -7  -3  -1    7.50    6.30
   7   3  -1   13.00    2.00
  -7   3   1    8.70    2.90
   7   3  -1   13.90    1.90
   7  -3   1   14.70    1.80
  -7  -3  -1   11.40    4.10
  -7   3  -1   10.00    2.40
   7   3   1    9.10    1.50
   7   3   1   17.20    2.00
   7  -3  -1   14.00    1.50
  -7  -3   1   10.00    4.00
  -7   3  -1   10.10    2.80
   7  -3  -1   13.30    1.70
   7  -3  -1   13.40    1.60
  -7   3  -1   14.70    2.80
   7  -3  -1   14.70    1.90
  -7   3  -1   12.80    4.40
  -7  -3   1    9.60    6.60
  -7  -3   1   13.40    4.60
   7  -3  -1   16.40    1.90
  -7  -3   1   13.10    4.70
  -7  -3   1   13.30    4.20
  -7  -3   1   13.40    4.90
   7  -3  -1   11.80    1.80
   7  -3  -1   11.80    1.60
  -7  -3   1   12.50    4.40
   7   3   1   16.10    1.80
  -7  -3   1   14.70    3.30
  -7   3  -1   14.40    3.20
  -7   3  -1   12.70    2.80
  -7   3  -1   12.10    3.70
   7   3   1   17.80    1.50
   7   3   1   16.40    1.50
   7  -4   1    1.10    0.80
   7  -4   1    1.20    0.60
  -7   4   1   -0.90    2.00
  -7  -4  -1   -0.10    2.50
   7  -4   1    0.60    0.90
  -7  -4  -1    1.20    2.90
   7  -4   1    1.00    1.00
   7  -4   1    0.60    0.90
  -7   4   1    0.50    2.10
  -7   4   1    0.60    1.70
  -7  -4  -1    3.60    5.40
  -7   4   1    0.70    1.60
  -7   4   1    0.80    2.80
  -7  -4  -1   -0.30    2.90
   7  -4   1    1.70    0.90
   7   4  -1    0.60    0.70
  -7  -4  -1    0.90    2.80
  -7   4   1    1.20    1.10
  -7  -4  -1    2.70    2.80
  -7  -4  -1    1.20    4.70
   7   4  -1    0.90    1.00
  -7  -4  -1    0.50    2.80
   7  -4   1    1.70    0.80
   7  -4   1    1.30    0.80
  -7   4  -1    0.00    2.30
  -7  -4   1   -0.20    3.00
   7   4   1    0.30    0.70
   7  -4  -1    0.60    0.70
  -7  -4   1   -1.40    4.00
  -7  -4   1   -0.10    3.00
   7  -4  -1    1.00    0.90
  -7   4  -1    2.20    1.70
   7  -4  -1    1.00    0.70
   7   4   1    0.90    0.60
   7  -4  -1    2.70    1.00
   7  -4  -1    1.70    0.70
  -7  -4   1    0.80    2.90
   7   4   1    2.30    1.10
  -7   4  -1    0.60    1.30
   7   4   1    0.40    0.80
  -7  -4   1    2.00    2.10
   7   4   1    1.40    0.90
  -7  -4   1    1.80    2.80
  -7  -4   1    1.60    2.80
   7  -4  -1    2.10    1.00
  -7   4  -1    0.60    1.70
  -7   4  -1    1.70    1.80
  -7  -4   1    0.80    2.90
   7  -4  -1    2.70    0.90
  -7   4  -1    0.30    1.90
   7  -5   1  633.14   31.40
   7  -5   1  618.94   31.40
  -7  -5  -1  474.35   37.00
   7   5  -1  569.14   30.80
  -7   5   1  503.05   32.50
   7  -5   1  627.24   31.20
  -7   5   1  567.94   32.20
   7   5  -1  572.74   31.10
  -7  -5  -1  538.65   34.00
  -7   5   1  580.14   32.30
  -7   5   1  600.34   31.20
  -7  -5  -1  540.35   33.70
   7  -5  -1  614.34   31.10
   7  -5  -1  604.54   31.30
   7  -5  -1  602.44   30.70
  -7  -5   1  537.05   34.00
   7  -5  -1  608.84   31.20
  -7   5  -1  596.14   32.30
  -7   5  -1  612.64   32.30
  -7  -5   1  541.45   38.10
   7  -5  -1  612.94   31.20
   7   5   1  602.74   30.90
   7   5   1  564.74   31.20
  -7  -5   1  532.55   33.30
  -7   5  -1  621.64   32.20
   7   5   1  601.74   31.60
  -7  -5   1  549.45   34.10
  -7  -5   1  544.85   34.00
  -7   6   1   21.00    2.10
  -7  -6  -1   17.90    4.90
  -7   6   1   18.10    2.60
   7  -6   1   20.50    1.70
  -7   6   1   22.60    2.70
   7  -6   1   24.60    1.90
   7  -6   1   22.70    2.10
   7  -6   1   24.60    2.00
   7   6  -1   17.50    1.90
  -7   6   1   17.50    2.70
   7   6  -1   21.60    1.80
   7  -6  -1   23.20    2.00
   7   6   1   21.70    1.70
   7   6   1   21.60    2.00
  -7  -6   1   19.10    5.10
  -7  -6   1   19.00    3.60
   7   6   1   21.10    1.80
  -7  -6   1   17.30    3.30
   7  -6  -1   22.80    1.80
   7  -6  -1   25.00    1.90
   7  -6  -1   22.10    1.90
   7   6   1   21.40    1.60
   7   0   2    3.30    0.90
  -7   0   2    5.50    3.40
  -7   0  -2    4.90    3.30
   7   0   2    4.20    1.10
   7   0   2    4.50    1.00
  -7   0   2    5.50    1.90
   7   0   2    5.10    1.20
   7   0   2    5.90    1.30
  -7   0   2    8.90    3.90
   7   0  -2    7.30    0.90
  -7   0  -2    6.10    3.80
   7   0   2    5.10    1.40
  -7   0  -2    0.90    2.00
   7   0   2    4.70    1.10
   7   0   2    3.80    1.00
   7   0   2    4.70    1.20
   7   0   2    6.40    1.00
  -7   0   2    7.30    4.40
   7   0  -2    6.00    1.10
  -7   0   2    5.70    2.40
  -7   0  -2    4.80    2.70
  -7   0   2    4.90    2.10
   7   0   2    3.30    1.20
  -7   0  -2    6.10    6.40
  -7   0   2    5.80    2.80
  -7   0  -2    3.40    2.80
  -7   0   2    3.60    2.40
   7   0  -2    6.10    1.10
  -7   0  -2   10.20    3.80
   7   0  -2    5.30    1.20
  -7   0   2    3.20    2.60
  -7   0   2    6.20    2.30
  -7   0   2    9.30    3.70
  -7   0  -2    3.10    1.90
   7   0   2    3.80    0.90
   7   1  -2   19.60    2.30
  -7   1   2   15.90    3.60
  -7  -1  -2   22.00    6.00
   7  -1   2   18.30    2.20
  -7   1   2   22.60    3.60
  -7   1   2   24.00    3.90
   7  -1   2   18.70    2.20
  -7  -1  -2   21.20    5.20
   7  -1   2   18.30    2.10
  -7  -1  -2   18.40    3.30
  -7  -1  -2   22.30    5.00
  -7   1   2   22.50    6.00
   7   1  -2   17.80    1.90
   7  -1   2   17.50    2.30
   7  -1   2   24.60    2.30
  -7   1   2   16.50    3.60
  -7  -1  -2   10.80    3.90
  -7  -1  -2   22.90    5.60
   7  -1   2   25.40    2.10
   7  -1   2   18.90    1.90
   7  -1   2   18.10    2.10
  -7   1   2   16.50    4.70
   7  -1   2   18.60    1.90
   7  -1   2   18.20    1.80
  -7   1   2   26.50    3.90
  -7  -1  -2   19.80    8.30
  -7   1   2   20.00    3.60
   7  -1   2   20.00    2.00
  -7   1   2   16.80    3.50
   7  -1   2   20.80    2.30
  -7  -1   2   19.50    4.00
  -7  -1   2   15.10    4.30
   7   1   2   19.00    1.90
  -7   1  -2   17.90    3.30
  -7  -1   2   16.60    5.60
   7   1   2   19.50    2.10
   7   1   2   20.30    2.30
   7  -1  -2   19.80    2.00
   7   1   2   19.00    1.80
   7  -1  -2   18.40    1.90
  -7   1  -2   16.90    4.30
  -7  -1   2   20.60    3.60
  -7   1  -2   21.20    3.40
  -7   1  -2   19.00    3.40
   7   1   2   19.60    2.20
   7   1   2   20.60    1.90
   7   1   2   20.00    2.60
  -7  -1   2   18.70    4.00
  -7  -1   2   18.50    5.60
  -7  -1   2   17.60    3.80
   7   1   2   19.50    2.10
   7   1   2   19.00    1.70
  -7  -1   2   20.00    3.50
   7   1   2   27.10    2.30
  -7   1  -2   26.30    5.10
   7   1   2   21.40    1.90
  -7  -1   2   21.20    3.70
  -7   1  -2   16.60    4.70
  -7  -1   2   15.30    4.60
   7  -1  -2   18.10    2.10
  -7  -1   2   16.80    7.60
   7   1   2   20.60    2.10
   7   1   2   19.90    2.30
   7  -1  -2   19.10    1.60
   7   1   2   20.90    1.90
  -7  -1   2   19.90    5.10
  -7  -2  -2    1.10    2.70
   7  -2   2    3.50    1.10
  -7   2   2    8.60    2.50
  -7  -2  -2    5.10    3.90
   7  -2   2    3.70    1.10
   7  -2   2    3.50    1.10
  -7  -2  -2    0.70    3.20
   7  -2   2    3.60    1.20
   7  -2   2    2.60    0.80
  -7  -2  -2   14.20    5.10
  -7   2   2    1.00    1.70
  -7   2   2    2.90    2.40
  -7  -2  -2    2.40    2.20
  -7  -2  -2    0.10    3.50
  -7   2   2    3.10    1.30
  -7   2   2    1.20    3.10
   7  -2   2    3.80    1.10
   7  -2   2    3.00    1.10
  -7  -2  -2    4.80    6.00
   7   2  -2    3.20    1.20
   7  -2   2    2.40    0.90
  -7   2   2    1.90    1.70
   7  -2   2    1.60    0.80
  -7   2   2    1.60    2.20
  -7   2   2    2.40    2.50
   7  -2   2    3.30    1.00
   7  -2   2    3.10    1.20
  -7  -2   2    3.50    2.30
  -7  -2   2    0.00    3.50
   7   2   2    4.20    1.10
  -7  -2   2    2.30    3.50
   7   2   2    2.70    1.00
  -7   2  -2    4.50    2.20
   7   2   2    3.40    0.90
   7  -2  -2    2.60    1.00
  -7  -2   2    1.40    2.70
   7   2   2    2.90    0.90
  -7   2  -2    6.50    3.60
   7  -2  -2    2.20    0.90
   7   2   2    2.40    0.90
   7  -2  -2    3.20    1.00
  -7   2  -2    3.50    2.00
   7   2   2    2.30    0.80
  -7   2  -2    4.50    1.90
  -7  -2   2    2.40    3.00
  -7   2  -2    3.90    2.70
   7   2   2    3.20    1.00
  -7  -2   2   -0.10    3.60
  -7  -2   2    4.20    2.70
  -7  -2   2    2.80    3.20
  -7  -2   2   -1.10    5.40
   7  -2  -2    2.50    0.80
   7   2   2    4.80    1.20
  -7  -2   2    4.00    2.20
   7   2   2    4.30    1.20
  -7   2  -2    8.00    3.60
  -7   2  -2    9.50    2.40
  -7  -2   2    4.20    3.40
   7   2   2    3.20    0.80
  -7   3   2  119.99    7.40
  -7  -3  -2  113.39   10.80
   7  -3   2  123.69    7.50
   7   3  -2  123.29    7.80
   7  -3   2  119.19    7.50
   7  -3   2  120.89    7.30
  -7   3   2  112.29    8.80
  -7  -3  -2  120.39   10.90
  -7   3   2  109.59   10.80
   7  -3   2  122.59    7.50
  -7   3   2  117.89    9.10
  -7  -3  -2  127.49   15.10
  -7  -3  -2   91.19   14.80
  -7  -3  -2  108.09   10.40
  -7   3   2  128.19    8.70
  -7  -3  -2  113.59    9.70
   7  -3   2  123.89    6.90
  -7   3   2  120.39    9.30
   7  -3   2  119.39    7.20
   7  -3   2  126.49    7.40
   7  -3   2  119.89    7.30
   7  -3   2  125.79    7.40
  -7  -3  -2  111.49   10.50
   7  -3   2  123.39    7.20
  -7   3   2  113.09    8.70
   7  -3  -2  127.69    7.30
   7   3   2  117.79    7.40
  -7  -3   2  109.89   11.10
  -7   3  -2  128.89   10.70
  -7  -3   2  103.29   14.10
  -7   3  -2  126.19    9.70
   7  -3  -2  121.29    6.80
   7   3   2  120.59    7.20
  -7  -3   2  120.49    9.10
  -7  -3   2  110.29    9.30
  -7   3  -2  124.69    8.80
   7   3   2  114.69    7.00
   7   3   2  121.79    7.70
  -7   3  -2  116.49    8.30
   7  -3  -2  124.89    7.40
  -7  -3   2  114.79   10.50
   7   3   2  123.99    7.10
  -7  -3   2  102.69   10.30
  -7  -3   2  108.79   10.90
  -7  -3   2  105.89   10.80
  -7   3  -2  118.59   10.10
   7   3   2  122.79    7.30
  -7  -3   2  113.39   10.30
   7   3   2  126.49    6.90
   7   3   2  114.59    7.30
   7   3   2  118.49    7.30
   7   3   2  124.99    7.10
  -7   3  -2  121.39    8.40
   7   3   2  121.29    7.00
   7  -3  -2  120.09    7.20
  -7   3  -2  118.79    8.50
   7  -4   2   12.00    1.50
  -7  -4  -2   11.00    4.00
  -7  -4  -2   11.10    6.50
   7  -4   2   14.40    1.70
  -7  -4  -2    8.50    3.10
  -7  -4  -2    9.80    5.30
  -7   4   2   13.80    3.10
  -7  -4  -2    9.50    3.00
   7   4  -2   12.80    1.60
   7   4  -2   12.10    1.60
  -7  -4  -2    7.00    3.50
  -7   4   2   11.80    1.90
   7  -4   2   10.70    1.60
   7  -4   2   14.60    1.70
  -7   4   2   14.40    2.90
  -7   4   2   12.00    3.00
   7  -4   2   11.00    1.70
  -7   4   2    9.70    2.90
  -7   4   2   11.90    2.90
   7   4  -2   12.40    1.90
   7  -4   2   14.00    1.80
  -7   4   2   11.90    3.10
  -7  -4  -2    7.20    3.70
   7  -4   2   13.30    2.00
  -7   4  -2   11.20    2.70
  -7  -4   2   14.00    3.00
   7  -4  -2   12.70    1.70
   7  -4  -2   11.50    1.30
   7  -4  -2   13.20    1.60
  -7  -4   2    9.30    3.70
  -7  -4   2   11.50    3.80
   7   4   2   12.90    1.90
  -7  -4   2   11.80    4.00
   7   4   2   11.80    1.70
  -7   4  -2   10.50    2.40
   7   4   2   12.30    1.40
  -7  -4   2    9.10    3.90
  -7   4  -2   10.80    2.40
  -7   4  -2   10.30    2.50
   7  -4  -2   12.90    1.70
  -7  -4   2   10.80    3.90
  -7   4  -2   18.10    4.20
  -7  -4   2   12.50    4.10
   7   4   2   12.90    1.40
   7   4   2   13.90    1.60
  -7   4  -2   11.00    2.40
   7   4   2   13.60    1.40
   7  -4  -2   13.80    1.60
   7  -4  -2   13.00    1.60
   7   4   2   13.30    1.80
  -7  -4   2    9.40    5.70
  -7  -5  -2   63.19    7.10
   7   5  -2   77.29    4.70
   7  -5   2   79.49    4.70
  -7  -5  -2   60.29    6.40
   7  -5   2   77.39    5.00
  -7   5   2   73.79    5.90
   7  -5   2   83.89    5.10
  -7  -5  -2   66.99   11.30
  -7  -5  -2   53.39    9.30
   7  -5   2   82.39    4.90
  -7   5   2   74.69    6.10
  -7   5   2   72.39    6.30
  -7   5   2   77.59    5.00
   7  -5   2   79.69    5.00
   7  -5   2   79.79    4.80
  -7  -5   2   63.49    6.80
  -7  -5   2   72.69    7.80
  -7  -5   2   65.39   10.10
   7  -5  -2   83.39    4.90
   7   5   2   74.39    4.90
  -7   5  -2   77.49    5.80
   7   5   2   78.99    4.60
  -7   5  -2   75.09    6.00
  -7  -5   2   65.09    7.50
   7  -5  -2   83.09    4.50
  -7  -5   2   64.89    7.20
   7  -5  -2   83.39    4.80
   7  -5  -2   77.69    4.80
   7   5   2   70.89    4.70
   7  -5  -2   79.39    4.90
   7   5   2   78.79    5.20
  -7   5  -2   78.89    6.10
   7   5   2   75.39    4.60
   7  -6   2   75.19    4.40
  -7  -6  -2   70.09    8.90
  -7   6   2   68.79    4.40
   7  -6   2   66.19    4.20
  -7   6   2   66.09    5.10
   7  -6   2   77.09    4.30
   7  -6   2   79.39    4.50
  -7   6  -2   77.49    5.30
   7   6   2   57.69    4.40
  -7  -6   2   64.79    7.90
  -7  -6   2   64.59    6.00
   7   6   2   67.69    4.10
  -7   6  -2   77.89    5.10
   7  -6  -2   76.89    4.30
   7   6   2   68.89    4.10
  -7  -6   2   57.49    5.90
  -7   0   3    3.00    4.30
   7   0   3   -0.10    0.90
   7   0   3   -0.10    1.10
   7   0  -3    1.00    0.70
  -7   0   3    0.00    1.80
   7   0   3   -0.20    0.80
   7   0   3    2.20    1.20
   7   0   3    0.50    0.80
   7   0   3   -0.50    0.60
  -7   0   3   -0.60    2.40
   7   0  -3    2.30    1.00
  -7   0  -3    0.10    2.80
  -7   0   3   -1.60    2.90
   7   0   3    0.10    0.90
   7   0   3    0.20    0.70
  -7   0  -3    0.50    2.30
   7   0   3    0.00    0.70
   7   0   3    0.00    0.80
   7   0   3    0.10    0.60
   7   0   3    0.00    0.60
  -7   0   3   -0.50    1.60
   7   0  -3    0.10    0.50
  -7   0  -3    0.10    2.70
  -7   0   3    0.50    1.70
   7   0   3    0.30    0.60
  -7   0   3   -1.80    2.50
   7   0   3   -0.20    0.70
  -7   0  -3   -1.20    3.00
   7   0   3   -0.10    0.60
   7   0   3    0.40    0.90
  -7   0   3    0.40    1.70
  -7   0   3   -0.90    1.60
  -7   0  -3   -0.90    1.70
  -7   0   3    1.50    1.00
   7   0   3   -0.20    0.50
  -7   0   3    2.40    1.40
  -7   0   3   -0.30    2.30
  -7   0  -3    0.50    2.40
  -7  -1  -3  200.28   12.60
   7  -1   3  152.28    9.00
   7  -1   3  155.98    9.40
   7  -1   3  155.08    9.30
   7  -1   3  155.18    9.20
   7  -1   3  149.39    9.10
   7   1  -3  156.28    9.40
  -7   1   3  169.68   10.70
  -7   1   3  156.58   11.40
   7  -1   3  154.98    9.00
  -7   1   3  172.88   11.00
  -7   1   3  156.18    9.30
   7  -1   3  151.58    9.00
  -7   1   3  162.18   11.80
   7  -1   3  151.58    9.20
  -7   1   3  171.58   10.40
   7  -1   3  145.89    8.90
   7  -1   3  154.48    9.50
   7  -1   3  149.49    8.80
  -7   1   3  140.89   13.20
  -7   1   3  161.08   11.40
  -7  -1  -3  172.88   12.70
   7  -1   3  162.38    9.40
  -7   1   3  137.19    9.00
   7  -1   3  159.28    9.10
  -7   1   3  150.28   10.90
  -7   1   3  162.88    9.30
   7  -1   3  149.88    9.10
  -7   1   3  157.58   11.00
   7  -1   3  165.38    9.60
   7   1   3  156.18    8.90
  -7  -1   3  146.09   11.10
  -7  -1   3  132.69   10.60
  -7  -1   3  146.89   10.80
   7  -1  -3  146.69    8.80
   7   1   3  157.58    9.40
   7   1   3  152.58    9.00
  -7   1  -3  148.19   11.50
   7   1   3  158.98    9.20
   7   1   3  159.08    9.10
  -7  -1   3  138.29   13.40
   7   1   3  157.08    9.10
  -7  -1   3  145.49   11.20
  -7  -1   3  149.88   10.30
   7   1   3  165.88    9.30
  -7  -1   3  146.99   11.10
   7   1   3  155.78    8.90
  -7   1  -3  156.28   10.20
   7   1   3  155.28    9.40
   7  -1  -3  144.59    8.90
   7   1   3  158.68    8.80
  -7  -1   3  128.79   12.60
  -7  -1   3  139.39   12.40
   7   1   3  156.98    9.60
   7   1   3  157.38    9.00
  -7  -1   3  151.48   10.60
   7  -1  -3  146.99    8.90
   7  -1  -3  154.78    8.60
   7   1   3  151.78    9.80
  -7   1  -3  148.49   10.00
  -7   1  -3  167.88   12.90
   7   1   3  154.98    8.90
  -7  -1   3  130.39    9.10
   7   1   3  153.88    8.90
  -7  -1   3  142.69   13.90
  -7   1  -3  162.68   10.20
  -7   1  -3  130.39   11.00
   7   1   3  156.68    9.30
  -7  -1   3  142.59    9.30
  -7  -1   3  147.89   12.90
  -7   2   3   17.50    3.10
   7  -2   3   17.90    1.90
  -7   2   3   13.90    3.20
   7   2  -3   16.50    2.20
   7  -2   3   13.90    2.10
   7  -2   3   15.80    1.80
  -7  -2  -3    9.60    4.00
  -7  -2  -3   18.00    5.20
  -7   2   3   14.60    2.00
  -7  -2  -3   15.30    4.50
   7  -2   3   17.50    2.20
   7  -2   3   17.10    2.20
  -7   2   3   16.50    3.10
  -7   2   3   17.90    2.40
  -7   2   3   15.00    3.40
   7  -2   3   17.50    1.90
  -7   2   3    9.40    4.20
   7  -2   3   15.90    2.00
   7  -2   3   20.40    1.90
   7  -2   3   19.00    2.10
   7  -2   3   17.00    2.10
  -7   2   3   17.70    3.40
   7  -2   3   16.30    2.10
  -7  -2  -3   17.10    4.20
  -7   2   3   13.30    3.60
  -7  -2  -3   18.00    7.50
  -7  -2  -3   13.90    4.40
  -7   2   3   17.50    4.00
   7  -2   3   16.90    2.30
   7  -2   3   17.10    1.80
  -7   2   3   12.20    2.90
   7  -2   3   17.70    1.80
  -7  -2   3   15.10    5.20
   7   2   3   17.30    2.00
   7   2   3   15.40    1.90
   7   2   3   16.00    2.30
  -7  -2   3   13.40    3.10
  -7   2  -3   18.80    4.00
   7  -2  -3   15.50    1.90
  -7  -2   3   14.90    7.10
   7   2   3   16.90    2.20
  -7  -2   3   14.30    2.30
  -7  -2   3   15.80    5.00
   7   2   3   16.40    1.70
   7   2   3   19.00    2.10
  -7  -2   3   19.10    4.00
  -7  -2   3   14.40    4.60
   7   2   3   17.20    2.20
   7   2   3   16.60    1.70
  -7  -2   3   23.30    4.00
   7   2   3   13.90    1.90
   7   2   3   23.00    2.10
  -7  -2   3   14.30    4.50
   7   2   3   23.30    2.20
   7  -2  -3   17.00    1.90
  -7   2  -3   16.20    3.00
   7   2   3   16.10    1.60
  -7   2  -3   13.90    2.70
  -7  -2   3   23.70    4.30
   7   2   3   15.50    1.70
   7   2   3   16.70    1.70
  -7   2  -3   15.90    2.80
   7  -2  -3   17.20    1.50
   7  -2  -3   15.60    1.80
   7   2   3   18.10    1.80
   7   2   3   18.50    1.90
  -7  -2   3   18.10    3.50
   7   2   3   21.80    2.70
  -7  -2   3   19.40    5.10
   7  -3   3   90.39    5.30
   7   3  -3   83.09    5.80
   7  -3   3   82.59    5.40
  -7   3   3   85.59    6.70
   7  -3   3   86.39    5.60
  -7   3   3   83.39    7.30
   7  -3   3   84.59    5.60
  -7   3   3   78.59    7.50
  -7   3   3   84.59    7.60
   7  -3   3   85.19    5.60
  -7   3   3   93.69    7.00
  -7  -3  -3   79.19    8.40
  -7   3   3   75.39    9.20
   7  -3   3   85.39    5.70
   7  -3   3   82.89    5.60
  -7  -3  -3   81.99    7.80
  -7   3   3   90.69    6.70
  -7   3   3   90.79    5.70
  -7  -3  -3   86.09   12.40
   7  -3   3   82.79    5.40
   7  -3   3   82.29    5.50
  -7  -3  -3   75.99    8.60
  -7   3   3   73.49    6.90
   7  -3   3   86.59    5.50
  -7  -3  -3   85.29    8.80
   7   3  -3   84.59    5.20
   7  -3   3   86.19    5.40
  -7   3   3   78.19    7.10
   7  -3   3   93.79    5.60
   7   3   3   78.99    5.40
  -7  -3   3   77.89    9.10
   7   3   3   83.69    5.40
  -7  -3   3   82.99    7.50
   7  -3  -3   84.89    5.40
  -7  -3   3   83.39    8.40
   7  -3  -3   89.29    5.40
  -7  -3   3   83.09    7.30
   7   3   3   88.09    5.20
  -7   3  -3   84.89    6.30
  -7  -3   3   74.59    8.50
   7   3   3   84.99    5.90
  -7  -3   3   83.69    8.60
  -7   3  -3   84.29    6.50
   7   3   3   84.39    5.50
   7   3   3   79.99    5.20
  -7  -3   3   72.99    9.00
   7   3   3   79.89    5.00
  -7  -3   3   83.79    7.30
  -7   3  -3   86.49    6.70
  -7   3  -3   79.29    7.80
   7   3   3   83.39    6.00
   7  -3  -3   84.99    5.30
   7   3   3   84.09    5.30
   7   3   3   88.99    5.30
  -7   3  -3   90.89    6.50
   7   3   3   84.19    5.10
  -7  -3   3   62.39   11.40
   7   3   3   81.69    5.70
   7   3   3   83.09    5.50
   7  -3  -3   82.49    4.90
  -7   4   3   90.59    6.80
   7  -4   3   88.29    5.50
  -7   4   3   89.69    6.60
   7  -4   3   89.09    5.60
  -7  -4  -3   72.49   12.90
  -7   4   3   91.69    5.80
   7  -4   3   91.39    5.70
  -7   4   3   85.29    7.10
  -7   4   3   88.89    6.80
   7  -4   3   92.09    5.50
   7  -4   3   93.59    5.80
  -7  -4  -3   81.89    8.40
  -7  -4  -3   69.89    7.40
   7   4  -3   90.69    5.40
  -7  -4  -3   71.69   10.90
   7  -4   3   92.59    5.80
  -7   4   3   76.99    7.10
   7  -4   3   91.99    5.70
  -7  -4   3   79.49    8.60
   7   4   3   86.49    5.50
   7   4   3   87.49    5.70
   7   4   3   80.99    5.10
   7   4   3   86.69    5.40
  -7   4  -3   97.69    6.80
   7   4   3   85.59    5.60
   7   4   3   88.89    5.40
   7   4   3   86.99    5.30
  -7  -4   3   93.89    7.10
   7  -4  -3   92.19    5.10
  -7  -4   3   86.49    7.90
  -7  -4   3   83.49    8.30
  -7   4  -3   97.99    6.70
  -7   4  -3   99.19    6.60
  -7   4  -3  104.39    8.60
   7   4   3   84.19    5.30
   7   4   3   87.29    5.30
  -7   4  -3   92.39    6.40
   7   4   3   92.69    6.00
  -7  -4   3   87.59    9.00
   7  -4  -3   95.29    5.50
  -7  -4   3   74.19   11.00
   7  -4  -3   93.69    5.60
  -7   5   3   32.00    4.00
   7  -5   3   40.80    2.60
   7  -5   3   39.70    2.90
   7  -5   3   33.10    2.60
  -7  -5  -3   30.20    7.20
  -7   5   3   34.80    3.60
  -7   5   3   30.40    3.90
  -7  -5  -3   28.50    4.40
   7  -5   3   38.80    2.90
  -7   5   3   37.60    3.50
  -7  -5  -3   25.70    5.50
   7  -5   3   40.60    3.00
  -7   5   3   33.40    3.00
  -7  -5  -3   27.90    4.50
   7  -5   3   39.00    2.80
   7  -5   3   40.60    3.00
  -7   5  -3   37.60    3.90
   7   5   3   40.40    2.60
  -7   5  -3   38.80    4.00
   7   5   3   38.50    2.80
  -7  -5   3   54.49    5.90
   7   5   3   35.80    2.70
   7   5   3   34.40    3.00
  -7  -5   3   38.40    5.00
   7  -5  -3   37.60    2.70
  -7  -5   3   47.50    5.70
   7   5   3   37.20    2.50
   7  -5  -3   41.90    2.80
  -7   5  -3   38.10    3.70
  -7  -5   3   46.40    7.60
  -7  -5   3   37.40    4.70
  -7   5  -3   38.90    3.70
  -7  -5   3   50.39    4.20
   7  -5  -3   33.90    2.40
   7  -5  -3   41.10    2.70
  -7   0   4   39.80    3.50
   7   0   4   40.00    3.60
   7   0   4   40.10    3.30
  -7   0   4   39.10    4.50
  -7   0   4   33.10    4.80
  -7   0  -4   39.30    4.30
  -7   0  -4   45.60    6.50
   7   0   4   41.50    3.50
   7   0   4   45.40    3.20
   7   0   4   42.30    3.70
   7   0   4   41.60    3.30
   7   0   4   42.10    3.40
   7   0   4   40.10    3.30
   7   0   4   39.90    3.20
  -7   0  -4   46.20    6.30
   7   0   4   41.30    3.30
   7   0   4   45.00    3.30
   7   0   4   40.80    3.20
   7   0   4   45.20    3.70
  -7   0   4   37.20    3.20
  -7   0  -4   62.39    7.00
  -7   0   4   41.00    4.90
   7   0   4   40.80    3.60
  -7   0   4   39.30    3.50
  -7   0   4   36.40    3.60
  -7   0   4   39.80    4.70
   7   0   4   43.40    3.10
   7   0   4   40.30    3.10
  -7   0   4   36.80    5.50
   7   0   4   42.10    3.10
  -7   0   4   36.70    5.40
  -7   0   4   40.00    4.70
  -7   0   4   39.60    7.20
   7   0   4   40.90    3.10
   7   0  -4   42.60    3.50
  -7   0   4   27.10    4.60
   7  -1   4   65.29    4.50
   7  -1   4   59.19    4.20
   7  -1   4   67.69    4.40
  -7   1   4   54.79    6.90
  -7   1   4   60.19    5.90
   7  -1   4   70.49    4.80
  -7   1   4   59.09    5.50
  -7   1   4   58.19    4.50
   7  -1   4   63.69    4.20
   7  -1   4   62.19    4.40
  -7   1   4   54.89    7.10
  -7   1   4   57.29    5.90
   7   1  -4   63.29    4.60
   7  -1   4   60.49    4.20
  -7   1   4   53.19    8.80
   7  -1   4   62.49    4.40
   7  -1   4   61.99    4.30
  -7   1   4   58.49    6.00
   7  -1   4   62.39    4.80
   7  -1   4   62.19    4.70
  -7   1   4   53.49    4.20
  -7  -1  -4   62.69    7.50
   7  -1   4   61.19    4.40
   7  -1   4   60.59    4.30
  -7   1   4   63.99    4.50
  -7   1   4   55.09    4.40
   7  -1   4   56.79    4.10
  -7  -1  -4   73.69   12.00
  -7   1   4   57.29    5.60
  -7  -1  -4   58.89    7.00
   7  -1   4   62.69    4.60
   7  -1   4   65.39    4.30
   7  -1   4   61.09    4.40
  -7  -1  -4   64.59    7.90
   7  -1   4   63.89    4.20
  -7   1   4   53.39    6.10
   7  -1   4   64.89    4.80
  -7  -1  -4   62.69    6.70
  -7   1  -4   64.29    7.70
   7   1   4   62.69    4.30
   7   1   4   63.19    4.30
   7   1   4   65.89    4.60
   7   1   4   60.19    4.00
  -7  -1   4   58.49    4.60
  -7  -1   4   53.49    4.40
  -7  -1   4   57.59    6.10
  -7   1  -4   60.69    5.40
  -7  -1   4   49.40    8.30
   7   1   4   59.59    4.00
  -7  -1   4   56.09    6.20
  -7  -1   4   60.99    7.70
   7  -1  -4   62.59    4.50
  -7  -1   4   64.79    7.20
  -7  -1   4   54.49    8.10
   7  -1  -4   59.09    3.70
  -7  -1   4   60.59    5.60
  -7  -1   4   60.39    5.50
  -7  -1   4   45.10    8.00
   7   1   4   63.69    4.10
   7   1   4   62.89    4.20
  -7  -1   4   55.79    6.60
   7   1   4   59.59    4.50
   7   1   4   60.79    4.10
  -7  -1   4   58.89    5.70
   7   1   4   61.49    4.50
   7   1   4   64.39    4.80
   7   1   4   63.19    4.70
   7   1   4   62.29    4.30
  -7  -1   4   56.19    6.00
   7   1   4   63.49    4.80
   7   1   4   62.59    4.30
   7  -1  -4   60.99    4.10
   7   1   4   66.99    4.40
   7   1   4   63.39    4.20
  -7   1  -4   56.89    6.50
  -7   1  -4   50.89    6.40
  -7   1  -4   67.29    5.40
   7   1   4   62.19    4.10
   7   1   4   63.49    4.50
  -7  -1   4   52.09    4.60
  -7   2   4   69.89    4.70
  -7   2   4   68.69    7.30
   7  -2   4   76.79    5.00
  -7  -2  -4   69.69    8.20
   7  -2   4   71.79    4.80
  -7   2   4   68.09    6.60
   7  -2   4   76.29    5.30
   7  -2   4   73.09    5.00
   7  -2   4   69.89    4.90
   7  -2   4   71.99    5.20
   7  -2   4   71.99    4.90
  -7  -2  -4   59.99    7.40
  -7   2   4   69.99    5.90
  -7   2   4   60.19    9.30
   7  -2   4   74.69    4.70
   7   2  -4   72.59    5.10
  -7   2   4   57.49    4.60
  -7   2   4   69.39    6.50
   7  -2   4   69.09    4.80
  -7  -2  -4   77.99    8.20
  -7  -2  -4   61.69   10.80
   7  -2   4   65.59    4.60
  -7   2   4   61.49    6.30
  -7   2   4   63.79    6.60
  -7  -2  -4   70.49    7.00
   7  -2   4   69.49    4.90
  -7   2   4   66.39    7.50
   7  -2   4   70.39    4.70
  -7   2   4   68.89    4.90
   7  -2   4   77.09    4.80
   7  -2   4   72.89    4.80
  -7   2   4   71.09    6.10
  -7  -2   4   62.39    5.00
  -7  -2   4   72.99    8.00
  -7   2  -4   54.89    6.60
  -7  -2   4   72.49    6.90
  -7  -2   4   70.79    6.20
   7   2   4   71.79    4.50
   7   2   4   76.39    4.80
   7  -2  -4   70.99    4.60
  -7  -2   4   70.49    6.60
  -7  -2   4   65.99    7.70
  -7  -2   4   55.49    7.90
   7   2   4   70.69    4.90
   7   2   4   71.39    4.60
   7   2   4   68.89    5.40
  -7   2  -4   75.39    6.00
   7   2   4   70.89    4.60
  -7   2  -4   73.49    7.00
  -7  -2   4   55.29    5.00
   7   2   4   75.79    5.00
  -7  -2   4   71.59    6.90
   7  -2  -4   69.39    4.20
   7   2   4   69.69    4.70
   7  -2  -4   70.49    4.60
  -7  -2   4   73.99    6.00
  -7   2  -4   68.99    5.60
   7   2   4   71.29    4.50
  -7   2  -4   81.09    5.90
   7   2   4   71.79    4.50
   7   2   4   78.79    5.30
   7   2   4   72.09    4.40
  -7  -2   4   60.59    8.40
  -7  -2   4   69.99    9.10
   7   2   4   72.39    4.50
   7   2   4   77.59    5.20
   7  -2  -4   70.09    4.50
   7   2   4   74.99    4.70
   7   2   4   70.69    4.70
   7   2   4   74.19    5.00
  -7  -2   4   73.79    6.80
  -7   3   4  402.76   24.50
  -7   3   4  396.66   22.60
   7  -3   4  427.46   22.90
   7  -3   4  450.65   22.80
  -7  -3  -4  415.46   26.00
   7  -3   4  420.26   22.90
   7  -3   4  450.35   22.90
   7  -3   4  435.46   22.80
   7  -3   4  444.86   23.20
   7   3  -4  433.26   22.50
  -7   3   4  397.16   22.40
   7  -3   4  455.95   22.60
  -7   3   4  406.66   24.40
   7  -3   4  440.86   22.90
   7  -3   4  429.36   22.90
  -7   3   4  410.96   22.90
  -7   3   4  389.76   24.00
  -7   3   4  398.76   24.70
  -7  -3  -4  412.26   29.90
  -7  -3  -4  389.66   25.50
  -7   3   4  423.26   24.20
   7  -3   4  433.26   22.80
  -7   3   4  399.76   23.70
  -7  -3   4  395.36   25.40
  -7  -3   4  398.66   24.30
  -7   3  -4  417.96   23.50
  -7  -3   4  351.16   25.70
  -7   3  -4  415.26   23.30
  -7  -3   4  404.16   23.80
   7   3   4  416.16   22.50
   7   3   4  408.96   22.50
  -7   3  -4  419.96   23.60
   7  -3  -4  433.36   22.60
   7   3   4  414.56   22.50
   7   3   4  418.06   22.70
   7   3   4  407.66   22.40
   7   3   4  420.66   22.90
   7   3   4  441.36   23.00
   7   3   4  397.26   22.30
  -7  -3   4  404.96   26.50
   7  -3  -4  428.36   22.70
  -7  -3   4  352.66   22.80
  -7  -3   4  403.26   24.10
  -7  -3   4  408.86   24.50
   7   3   4  403.26   22.40
  -7   3  -4  438.06   23.50
   7   3   4  411.56   23.00
   7   3   4  434.76   22.90
   7   3   4  419.46   22.60
   7   3   4  430.26   22.60
   7  -3  -4  442.56   22.30
   7   4  -4   30.30    2.40
  -7   4   4   30.10    3.70
  -7   4   4   32.60    2.80
  -7   4   4   30.90    2.30
  -7   4   4   28.60    3.80
  -7   4   4   31.00    3.80
  -7  -4  -4   26.20    7.10
  -7   4   4   29.90    3.40
   7  -4   4   29.50    2.40
   7   4  -4   30.40    2.40
   7  -4   4   37.30    2.80
   7  -4   4   33.60    2.50
   7  -4   4   32.20    2.60
  -7  -4  -4   33.30    4.70
   7  -4   4   31.60    2.70
   7  -4   4   30.50    2.70
  -7  -4  -4   24.30    4.50
   7  -4   4   31.50    2.70
   7  -4   4   34.00    2.40
  -7   4  -4   34.30    3.60
   7   4   4   33.00    2.50
   7   4   4   32.60    2.60
  -7   4  -4   29.20    3.50
   7  -4  -4   34.20    2.20
   7   4   4   31.50    2.20
  -7  -4   4   25.80    4.80
  -7  -4   4   26.60    4.30
  -7  -4   4   26.90    3.70
   7   4   4   31.20    2.10
   7   4   4   31.90    2.50
   7  -4  -4   35.90    2.50
  -7  -4   4   28.00    6.60
  -7  -4   4   27.50    4.90
   7   4   4   31.80    2.80
  -7   4  -4   31.50    3.40
  -7  -4   4   29.40    3.70
   7   4   4   31.70    2.20
   7  -4  -4   35.00    2.60
  -7   4  -4   31.10    3.20
  -7   4  -4   27.50    4.50
   7   4   4   33.50    2.40
   7   4   4   32.40    2.30
  -7  -4   4   26.10    4.50
   7   4   4   30.60    2.40
   7   5  -4   41.70    2.80
   7  -5   4   46.90    3.00
   7  -5   4   41.80    3.10
  -7  -5  -4   31.30    7.90
  -7   5   4   36.60    3.80
  -7   5   4   40.40    3.00
  -7   5   4   38.60    3.60
   7  -5   4   44.30    3.00
  -7  -5  -4   32.20    4.20
  -7  -5   4   42.70    4.70
  -7  -5   4   36.10    4.20
   7  -5  -4   48.30    2.80
   7   5   4   44.60    2.70
  -7   5  -4   41.50    3.50
   7  -5  -4   48.00    2.90
  -7  -5   4   34.00    4.50
   7   5   4   42.90    2.90
   7  -5  -4   41.60    2.60
  -7   5  -4   43.30    3.70
  -7  -5   4   29.60    5.70
  -7  -5   4   34.60    4.80
  -7   5  -4   43.00    3.80
  -7   0   5   -0.10    1.00
   7   0   5   -0.20    1.00
   7   0   5   -0.10    0.50
   7   0   5   -0.10    0.60
  -7   0   5    0.00    1.20
   7   0   5    0.10    0.70
  -7   0  -5   -2.40    2.40
   7   0   5    0.00    0.70
  -7   0   5    0.10    1.60
   7   0   5   -0.20    0.70
   7   0   5    0.60    0.80
  -7   0   5   -1.50    2.70
   7   0   5   -0.10    0.60
   7   0   5    0.30    0.70
  -7   0   5   -0.50    2.00
  -7   0   5    0.00    2.00
  -7   0   5   -0.60    0.70
  -7   0   5   -0.50    1.60
   7   0   5    0.40    0.70
   7   0   5   -0.20    1.00
  -7   0   5   -0.70    1.00
  -7   0   5   -0.90    0.80
   7   0   5    0.20    0.90
  -7   0  -5    0.00    2.70
  -7   0  -5    0.40    1.70
  -7   0   5    1.20    2.00
  -7   0   5   -3.50    2.50
   7   0   5    0.20    0.90
  -7   0   5   -1.30    2.80
   7   0   5    0.30    0.80
   7  -1   5  378.26   19.80
  -7   1   5  347.37   21.00
   7  -1   5  365.66   19.70
  -7   1   5  356.96   21.30
  -7   1   5  361.76   19.70
   7  -1   5  374.86   19.70
  -7   1   5  342.27   22.10
   7  -1   5  373.06   19.80
  -7   1   5  318.57   19.80
  -7  -1  -5  367.76   22.30
   7  -1   5  364.16   19.70
   7  -1   5  381.36   19.50
   7  -1   5  366.46   19.70
  -7  -1  -5  345.97   22.70
  -7   1   5  314.07   21.50
  -7   1   5  302.17   19.40
  -7   1   5  335.17   20.70
  -7   1   5  343.67   19.80
   7  -1   5  364.26   19.60
   7  -1   5  373.46   20.20
  -7  -1  -5  352.36   27.10
  -7  -1  -5  347.87   21.80
   7  -1   5  367.86   19.70
  -7   1   5  332.17   21.40
   7  -1   5  381.66   19.70
   7  -1   5  377.66   19.80
   7  -1   5  357.86   19.60
   7  -1   5  369.46   20.00
   7  -1   5  357.66   19.80
  -7   1   5  348.07   21.90
  -7   1   5  325.87   19.30
  -7   1   5  340.47   19.50
   7  -1   5  372.16   20.00
   7   1   5  373.36   19.50
   7   1   5  370.46   19.50
   7   1   5  363.36   19.70
  -7   1  -5  397.46   22.90
  -7  -1   5  347.87   20.60
   7   1   5  373.76   19.70
   7   1   5  348.47   19.60
  -7  -1   5  341.07   21.40
  -7  -1   5  330.47   21.10
  -7  -1   5  335.97   19.80
   7   1   5  359.56   19.50
   7   1   5  372.86   19.80
   7   1   5  362.96   19.60
   7   1   5  384.86   19.60
   7   1   5  364.86   19.50
  -7  -1   5  347.57   21.60
   7   1   5  372.16   20.10
   7   1   5  383.26   20.00
  -7  -1   5  355.46   21.00
  -7  -1   5  346.97   21.00
   7   1   5  364.26   19.40
  -7  -1   5  296.77   19.80
   7   1   5  382.56   19.80
  -7   1  -5  373.36   20.40
  -7  -1   5  334.87   21.70
  -7  -1   5  350.66   19.90
   7   1   5  372.96   20.10
  -7  -1   5  331.77   19.60
  -7   2   5   27.60    2.40
  -7   2   5   24.10    2.30
  -7   2   5   28.40    4.60
  -7   2   5   33.10    4.70
  -7   2   5   28.30    4.00
   7  -2   5   29.20    2.30
   7  -2   5   28.60    2.50
  -7   2   5   26.40    3.90
   7  -2   5   28.00    2.50
   7  -2   5   28.90    2.30
   7  -2   5   27.60    2.50
   7  -2   5   28.70    2.50
  -7   2   5   29.50    4.00
   7  -2   5   32.30    2.40
  -7   2   5   20.20    2.40
  -7   2   5   28.90    2.80
  -7  -2  -5   24.40    4.60
  -7  -2  -5   24.40    6.70
   7  -2   5   29.70    2.60
   7  -2   5   28.10    2.40
  -7   2   5   28.20    2.20
   7  -2   5   31.50    2.50
  -7   2   5   27.30    3.60
   7  -2   5   28.40    2.50
  -7  -2  -5   28.80    5.30
   7  -2   5   27.60    2.70
   7   2   5   28.10    2.60
   7   2   5   29.30    2.60
   7   2   5   27.60    2.20
   7   2   5   25.40    2.10
   7   2   5   29.00    2.50
   7   2   5   29.20    2.80
  -7  -2   5   23.60    2.70
  -7  -2   5   19.90    2.70
  -7  -2   5   21.40    3.20
  -7  -2   5   18.40    4.20
  -7   2  -5   26.60    3.30
   7   2   5   28.70    2.30
  -7  -2   5   28.00    5.80
  -7  -2   5   20.40    3.90
   7   2   5   27.10    2.10
  -7  -2   5   24.80    3.90
   7   2   5   28.30    2.60
   7  -2  -5   27.10    1.90
  -7  -2   5   23.30    3.50
   7   2   5   27.50    2.30
  -7  -2   5   21.90    3.30
  -7  -2   5   22.50    3.20
   7   2   5   27.90    2.30
  -7   2  -5   22.20    3.00
  -7  -2   5   25.40    3.80
   7   2   5   30.90    2.70
   7   2   5   28.30    2.10
   7   2   5   28.60    2.20
  -7  -2   5   29.40    4.50
  -7   3   5  534.45   32.70
   7  -3   5  579.94   31.10
  -7   3   5  559.84   31.20
   7  -3   5  603.94   31.10
  -7   3   5  559.64   32.20
  -7   3   5  554.34   30.80
  -7   3   5  547.15   32.40
   7  -3   5  628.04   31.00
   7   3  -5  599.74   30.80
   7  -3   5  628.04   31.10
  -7   3   5  548.75   32.00
   7  -3   5  606.74   31.10
  -7   3   5  536.45   31.80
  -7  -3  -5  550.64   33.50
   7  -3   5  602.14   31.20
   7  -3   5  623.14   31.10
   7  -3   5  609.64   31.20
  -7   3   5  537.35   30.90
   7  -3   5  576.64   30.90
  -7  -3   5  576.84   32.50
   7   3   5  518.05   30.80
   7   3   5  600.24   30.90
   7   3   5  575.24   30.90
  -7  -3   5  553.64   33.80
  -7  -3   5  572.74   32.40
  -7  -3   5  551.74   33.30
  -7   3  -5  598.24   31.60
   7   3   5  600.94   31.20
  -7  -3   5  554.94   31.90
   7  -3  -5  595.54   30.60
   7   3   5  567.94   31.10
   7   3   5  595.74   30.80
  -7   3  -5  555.84   31.50
   7  -3  -5  599.84   30.90
   7   3   5  584.34   30.80
   7   3   5  578.74   31.10
   7   3   5  593.94   30.80
   7   3   5  518.05   30.70
   7   3   5  617.14   31.30
  -7   3  -5  579.04   31.70
  -7  -3   5  579.74   32.10
   7   3   5  605.64   30.90
   7  -3  -5  607.94   30.80
  -7  -3   5  555.04   32.00
   7  -4   5   29.00    2.30
  -7   4   5   25.10    2.20
   7   4  -5   27.80    2.00
   7  -4   5   26.60    2.30
   7  -4   5   27.60    2.20
   7  -4   5   28.60    2.10
  -7   4   5   21.90    3.00
  -7  -4  -5   21.70    3.60
  -7   4   5   24.70    2.90
  -7  -4  -5   17.70    5.60
  -7  -4   5   23.10    2.80
  -7  -4   5   16.30    3.00
   7   4   5   26.40    2.10
  -7  -4   5   22.90    3.80
   7   4   5   23.70    2.00
   7   4   5   25.80    1.80
   7  -4  -5   26.30    1.70
   7   4   5   22.30    1.70
   7   4   5   24.90    2.20
   7   0   6  126.99    7.10
  -7   0   6  111.19    7.30
   7   0   6  132.79    7.20
   7   0   6  133.09    7.20
  -7   0   6  104.29    8.70
  -7   0  -6  126.19    9.80
  -7   0   6  118.99    8.10
  -7   0   6  112.59    7.00
   7   0   6  133.79    7.50
   7   0   6  131.79    7.30
   7   0   6  125.99    7.10
  -7   0   6  110.39    7.10
   7   0   6  124.39    7.50
   7   0   6  127.29    7.30
   7   0   6  131.29    7.20
  -7   0   6   98.79    7.60
  -7   0   6  122.19    9.30
  -7   0  -6  135.59   13.10
  -7   0   6  105.89    7.30
  -7   0  -6  112.09    9.10
  -7   0   6  122.69    7.40
  -7   0   6  123.39    8.40
   7   0   6  136.89    7.20
  -7   0   6  121.79    8.50
  -7   0   6  111.69    8.70
  -7   0   6  120.89    9.20
   7   0   6  132.49    7.60
   7   0   6  129.09    7.20
  -7   0  -6  102.59    8.70
  -7   0   6  115.99    7.40
  -7   1   6  116.69    7.40
   7  -1   6  136.09    7.70
   7  -1   6  139.09    7.90
   7  -1   6  137.99    7.50
  -7   1   6  116.99    9.00
  -7   1   6  123.39    8.50
   7  -1   6  140.99    7.60
  -7  -1  -6  123.39   10.00
   7  -1   6  142.29    7.60
  -7   1   6  129.29    7.60
  -7   1   6  122.09    7.30
   7  -1   6  130.39    7.50
   7  -1   6  141.19    7.70
   7  -1   6  139.89    7.70
   7  -1   6  137.89    7.50
  -7   1   6  127.79    7.80
  -7  -1  -6  120.29    9.70
  -7   1   6  116.89    7.60
  -7   1   6  116.09    9.20
   7  -1   6  140.69    7.70
  -7   1   6  129.59    9.50
  -7   1   6  126.89    8.70
  -7   1   6  129.09    8.90
  -7   1   6  124.89    7.70
  -7  -1   6  113.09    7.70
  -7  -1   6  122.59    8.40
   7   1   6  135.29    7.40
  -7  -1   6  130.49    8.90
  -7  -1   6  117.79    7.70
  -7  -1   6  115.89    8.80
  -7  -1   6  112.39    8.10
   7   1   6  135.19    7.40
  -7  -1   6  105.09    9.00
   7   1   6  141.79    7.50
  -7   1  -6  123.39    9.30
  -7   1  -6  133.59    9.80
   7   1   6  133.79    7.90
  -7  -1   6  130.49    9.40
  -7   1  -6  130.49    8.10
  -7  -1   6  121.09    8.60
   7   1   6  143.89    7.50
  -7  -1   6  112.69    7.50
   7   1   6  139.19    7.50
  -7  -1   6  129.69    8.70
   7   1   6  124.59    7.40
   7   1   6  140.39    7.70
   7   1   6  139.69    7.90
  -7  -1   6  125.69    7.70
   7   1   6  136.69    7.50
   7   1   6  135.29    7.50
   7   1   6  130.19    7.70
   7   1   6  138.99    7.60
  -7  -1   6  119.19    9.20
   7  -2   6   60.99    3.80
  -7   2   6   43.40    4.80
  -7   2   6   59.59    4.70
   7  -2   6   53.89    3.80
  -7   2   6   57.59    4.80
   7  -2   6   60.59    3.90
  -7   2   6   51.49    3.60
  -7   2   6   57.79    4.00
   7  -2   6   60.69    3.80
  -7   2   6   58.09    3.80
   7  -2   6   58.79    3.60
   7  -2   6   52.99    3.60
  -7   2   6   52.89    5.20
   7  -2   6   60.29    3.90
   7  -2   6   62.09    3.90
   7  -2   6   62.99    3.90
   7   2   6   64.09    3.60
   7   2   6   58.69    3.60
  -7  -2   6   48.90    4.50
   7   2   6   52.49    3.50
   7   2   6   61.09    3.90
   7   2   6   62.59    3.70
  -7   2  -6   54.79    4.30
   7   2   6   58.59    3.90
  -7  -2   6   52.49    3.90
  -7  -2   6   51.69    4.90
  -7  -2   6   54.39    4.70
   7   2   6   60.69    3.50
  -7  -2   6   57.59    5.00
  -7  -2   6   55.69    5.20
  -7  -2   6   51.09    5.30
   7   2   6   58.39    3.60
   7   2   6   61.19    3.80
  -7   2  -6   49.70    5.80
  -8   0   0   32.40    5.60
  -8   0   0   36.60    6.80
  -8   0   0   36.40    4.70
  -8   0   0   31.20    8.50
  -8   0   0   37.70    4.60
   8   0   0   36.30    3.00
  -8   0   0   58.99    5.30
   8   0   0   36.00    2.50
   8   0   0   36.40    2.90
   8   0   0   36.50    3.00
  -8   0   0   39.00    6.10
  -8   0   0   39.00    6.70
   8   0   0   35.30    2.70
   8   1   0    0.60    0.60
   8  -1   0   -0.20    0.60
  -8   1   0   -0.20    1.80
   8  -1   0   -0.20    0.70
  -8  -1   0   -0.80    3.30
   8  -1   0   -0.30    0.80
  -8  -1   0   -0.30    2.30
   8   1   0    0.30    0.60
   8   1   0   -0.10    0.70
  -8  -1   0    0.60    2.70
  -8  -1   0    0.70    2.50
  -8   1   0   -2.40    2.10
  -8   1   0   -3.70    3.20
  -8   1   0   -1.60    2.80
  -8   1   0   -0.20    1.60
  -8   1   0   -0.90    2.00
  -8  -1   0    0.50    4.80
   8   1   0    3.40    1.00
  -8   1   0   -1.60    2.60
  -8   1   0   -0.30    3.20
  -8  -1   0   -1.10    2.00
   8   1   0   -0.60    0.70
   8   1   0    0.40    0.80
  -8  -1   0    1.90    3.60
  -8  -1   0   -0.20    2.90
   8  -1   0    0.00    0.60
   8  -1   0   -0.40    0.50
  -8   2   0   85.39    6.50
   8  -2   0   81.39    5.10
  -8   2   0   87.69    8.60
  -8  -2   0   75.69    8.80
   8   2   0   75.89    4.70
  -8   2   0   86.59    6.80
   8  -2   0   79.29    4.70
  -8  -2   0   80.09    8.80
  -8  -2   0   77.29    6.70
   8   2   0   75.69    4.60
   8  -2   0   80.19    5.20
  -8  -2   0   71.99    8.30
  -8   2   0   87.89    7.00
  -8  -2   0   80.99    8.10
   8  -2   0   76.89    5.00
   8  -2   0   79.99    5.10
  -8   2   0   76.29    8.30
   8   2   0   74.79    5.20
  -8   2   0   89.29    6.70
   8   2   0   75.39    5.00
  -8  -2   0   62.99   11.20
   8  -2   0   78.49    4.90
  -8  -3   0    0.20    4.30
  -8   3   0    4.50    2.00
  -8  -3   0    1.90    2.10
   8  -3   0    2.00    0.80
   8   3   0    0.60    0.60
  -8   3   0   -2.70    1.80
   8  -3   0    0.60    0.80
   8  -3   0    0.80    0.60
  -8  -3   0    0.90    3.00
  -8  -3   0    4.80    3.20
   8  -3   0   -0.60    0.80
  -8   3   0    0.30    3.00
  -8   3   0    0.00    1.80
   8  -3   0    0.60    0.80
  -8  -3   0    0.30    2.90
   8  -3   0    0.50    0.60
  -8   3   0    1.20    1.40
  -8  -3   0    0.50    2.80
  -8   3   0    0.30    2.10
   8  -4   0  108.99    6.40
   8  -4   0  105.99    6.20
   8   4   0  109.19    6.20
  -8   4   0  107.89    7.60
  -8   4   0  105.39    7.10
  -8  -4   0   99.89    8.40
  -8  -4   0   99.89    9.00
  -8  -4   0   98.79    9.00
   8  -4   0  111.29    6.30
   8  -4   0  106.09    6.00
  -8  -4   0   86.69   11.90
   8  -4   0  107.99    6.40
   8   4   0  103.59    6.30
   8  -4   0  111.99    6.30
  -8   4   0  100.09    7.60
  -8   4   0  107.89    7.50
  -8  -4   0  114.69    9.40
  -8   5   0    0.40    1.10
   8  -5   0   -0.80    0.60
  -8  -5   0    1.20    2.90
   8   5   0    0.80    0.40
  -8   5   0    0.20    1.30
  -8  -5   0    1.20    2.00
   8   5   0    0.20    0.60
  -8   5   0   -0.90    1.50
  -8  -5   0    1.80    2.00
   8  -5   0    0.40    0.60
   8  -5   0    0.10    0.40
  -8   0  -1   -0.10    4.90
  -8   0  -1    0.00    2.50
  -8   0  -1   -0.70    3.50
   8   0  -1   -0.20    0.70
  -8   0  -1   -1.90    3.20
   8   0  -1    0.60    0.60
  -8   0  -1   -0.90    1.80
  -8   0   1   -0.80    1.80
   8   0  -1    0.90    0.70
  -8   0   1    0.20    2.20
  -8   0   1   -0.90    3.10
  -8   0   1    1.20    2.30
   8   0   1    0.50    0.60
  -8   0   1    0.70    2.90
   8   0   1    0.20    0.70
  -8   0  -1   -0.20    2.70
   8   0   1    0.50    0.80
   8   0   1    0.00    0.70
  -8   0   1    0.30    2.60
   8   0   1    0.10    0.60
  -8   0  -1    1.00    3.40
   8   0   1    0.60    0.80
  -8   0   1   -0.20    2.30
  -8   0   1    1.20    3.40
   8   0   1    0.30    0.60
  -8   0   1    1.70    1.90
  -8   0  -1   -0.70    1.90
  -8   0  -1   -1.10    2.20
   8   0  -1   -0.80    0.70
   8  -1   1  302.37   17.00
   8  -1   1  283.67   16.90
  -8  -1  -1  304.67   18.40
   8  -1   1  323.77   16.90
   8   1  -1  314.37   16.60
   8  -1   1  329.47   16.80
  -8   1   1  339.47   18.10
  -8  -1  -1  295.17   20.50
   8  -1   1  333.77   17.30
  -8  -1  -1  297.97   25.10
  -8   1   1  292.07   20.50
   8   1  -1  314.77   17.10
  -8   1   1  287.47   20.60
  -8   1   1  305.47   18.80
   8  -1   1  305.77   16.90
  -8  -1  -1  325.87   21.10
  -8   1   1  313.07   18.50
  -8   1   1  305.87   18.50
  -8  -1  -1  320.87   20.20
   8  -1   1  319.17   17.30
   8  -1   1  297.07   16.90
  -8  -1  -1  312.67   21.00
   8  -1   1  317.37   17.10
  -8   1   1  317.47   19.00
   8   1   1  310.37   16.80
   8   1   1  322.57   16.70
   8   1   1  318.87   17.10
   8   1   1  313.37   16.80
  -8  -1   1  297.87   18.60
  -8  -1   1  304.57   21.10
  -8  -1   1  279.17   20.30
  -8   1  -1  321.87   18.70
  -8   1  -1  305.87   20.70
  -8   1  -1  316.47   19.90
   8   1   1  317.47   17.20
   8  -1  -1  324.47   16.70
  -8  -1   1  286.37   18.60
  -8  -1   1  302.07   18.90
   8  -1  -1  331.87   17.20
  -8  -1   1  290.57   20.60
  -8   1  -1  300.97   20.30
   8  -1  -1  315.07   17.20
   8   1   1  285.47   17.20
   8   1   1  317.77   17.30
  -8   1  -1  327.37   18.40
  -8  -1   1  249.48   23.70
  -8   1  -1  267.27   23.60
  -8  -1   1  269.17   19.90
  -8   1  -1  306.47   18.40
  -8  -1   1  291.07   19.90
   8  -1  -1  320.17   17.00
  -8   1  -1  320.97   20.70
   8  -2   1   13.60    1.80
   8  -2   1   13.40    1.70
   8  -2   1   15.00    1.70
  -8  -2  -1   11.70    4.20
   8   2  -1   15.40    1.90
  -8  -2  -1   11.20    4.10
  -8  -2  -1   15.30    4.20
  -8   2   1   17.00    2.80
   8  -2   1   14.60    1.60
  -8  -2  -1   14.70    7.00
  -8  -2  -1    9.80    4.00
  -8   2   1   17.30    3.20
  -8   2   1   15.40    2.80
   8  -2   1   14.90    1.80
   8  -2   1   14.00    1.40
   8  -2   1   12.90    1.70
  -8   2   1   19.60    4.70
  -8   2   1   14.80    2.80
   8  -2   1   14.10    1.60
  -8   2   1   17.80    3.30
  -8  -2  -1   14.00    3.10
   8  -2   1   13.50    1.80
  -8   2   1   17.00    2.70
  -8  -2  -1   15.10    4.40
  -8   2  -1   10.00    3.80
  -8   2  -1   15.10    3.80
   8   2   1   12.70    1.70
  -8  -2   1   11.20    3.80
   8   2   1   14.60    1.70
   8   2   1   14.80    1.40
  -8  -2   1   10.50    3.90
   8   2   1   13.20    1.80
  -8   2  -1   14.60    3.00
  -8  -2   1   12.20    3.10
  -8   2  -1   16.30    3.20
   8  -2  -1   15.30    1.90
  -8  -2   1   15.40    4.80
   8   2   1   13.80    1.50
  -8  -2   1   12.80    6.40
   8   2   1   14.50    1.70
  -8   2  -1   12.00    2.60
  -8  -2   1   10.80    3.50
  -8  -2   1   13.10    3.90
  -8  -2   1   15.10    4.60
  -8  -2   1   11.30    3.00
   8  -2  -1   16.30    1.40
  -8   2  -1   11.70    2.70
   8  -2  -1   15.80    1.80
  -8   2  -1   14.70    4.10
   8   2   1   13.70    1.80
   8  -2  -1   14.90    1.80
  -8   3   1  297.07   17.50
  -8   3   1  292.67   17.70
  -8  -3  -1  283.97   19.60
  -8  -3  -1  286.87   19.70
   8  -3   1  316.27   16.60
   8  -3   1  307.27   16.50
  -8   3   1  299.87   17.90
   8  -3   1  303.37   16.30
  -8  -3  -1  273.47   19.40
   8  -3   1  315.57   16.10
   8  -3   1  287.97   16.30
  -8  -3  -1  280.47   18.80
  -8   3   1  295.47   18.00
  -8  -3  -1  284.97   23.70
   8  -3   1  310.17   16.40
   8  -3   1  308.37   16.40
   8  -3  -1  325.87   16.60
  -8   3  -1  301.67   17.40
  -8  -3   1  257.87   19.20
   8   3   1  312.47   16.60
  -8   3  -1  294.17   17.40
   8   3   1  305.17   16.50
  -8  -3   1  281.47   19.90
  -8   3  -1  312.37   17.90
  -8  -3   1  289.47   19.10
  -8  -3   1  237.68   22.70
  -8  -3   1  292.07   17.70
   8  -3  -1  324.17   16.40
  -8   3  -1  299.27   17.70
   8  -3  -1  300.77   16.10
  -8  -3   1  278.37   19.70
   8  -4   1  183.88   10.10
   8   4  -1  184.08   10.10
   8  -4   1  172.18   10.10
  -8  -4  -1  181.18   12.90
   8  -4   1  183.28    9.80
  -8   4   1  166.98   11.30
   8  -4   1  183.38   10.20
   8  -4   1  193.98   10.20
   8  -4   1  182.58   10.20
  -8  -4  -1  170.38   12.60
  -8   4   1  163.38   11.30
  -8  -4  -1  149.69   15.50
  -8  -4  -1  177.48   12.80
  -8   4   1  171.18   11.30
  -8  -4  -1  164.98   11.90
  -8   4   1  172.58   11.00
   8  -4   1  186.58   10.00
   8   4   1  183.08   10.20
   8   4   1  166.68   10.00
   8  -4  -1  183.18   10.10
  -8  -4   1  190.98   12.60
   8   4   1  175.98    9.90
   8  -4  -1  191.08   10.20
  -8   4  -1  177.68   11.30
  -8   4  -1  175.78   11.10
   8  -4  -1  192.78   10.10
  -8  -4   1  181.88   16.50
  -8  -4   1  186.58   13.00
   8  -4  -1  189.68    9.80
  -8   4  -1  167.98   11.20
   8  -4  -1  161.98    9.90
   8   4   1  176.08   10.40
  -8  -4   1  222.38   13.80
   8  -5   1   15.90    1.50
  -8   5   1   18.70    2.40
   8  -5   1   14.80    1.30
   8  -5   1   14.90    1.30
  -8  -5  -1    9.70    2.60
  -8  -5  -1    6.60    3.60
  -8   5   1   14.40    2.20
  -8   5   1   10.90    2.00
   8  -5   1   15.20    1.50
   8   5   1   14.10    1.20
   8   5   1   13.20    1.50
  -8  -5   1    8.10    3.90
   8   5   1   15.70    1.30
  -8   5  -1   13.40    2.20
  -8   5  -1   10.60    2.00
   8  -5  -1   16.30    1.40
  -8  -5   1   11.40    3.00
  -8  -5   1    9.30    2.60
   8  -5  -1   16.20    1.50
  -8   0  -2  157.28   13.00
  -8   0   2  173.48   12.20
  -8   0   2  188.68   11.80
  -8   0  -2  182.78   14.00
   8   0   2  188.08   10.30
  -8   0   2  158.18   13.80
  -8   0  -2  188.88   11.70
   8   0   2  191.08   10.70
   8   0  -2  182.48   10.40
  -8   0  -2  183.18   11.80
  -8   0   2  176.88   12.00
   8   0  -2  178.08   10.40
   8   0   2  189.68   10.30
  -8   0  -2  192.88   14.20
   8   0   2  188.88   10.50
   8   0  -2  182.68   10.00
   8   0   2  188.08   10.60
  -8   0   2  144.19   12.80
   8   0   2  177.08   10.20
  -8   0   2  158.78   13.80
   8   0   2  172.58   10.30
   8   0  -2  177.18   10.20
  -8   0  -2  203.28   18.50
  -8   0  -2  187.78   14.10
  -8   0   2  179.78   11.40
  -8   0   2  176.78   12.40
  -8   0   2  162.08   12.80
   8   0   2  185.58   10.10
  -8   0  -2  196.78   13.50
   8   0   2  190.28   10.20
  -8   0   2  174.88   12.00
   8   0   2  182.28   10.30
   8   0   2  190.18   10.60
  -8   1   2   40.20    4.50
  -8  -1  -2   39.40    9.80
   8  -1   2   44.20    3.00
  -8  -1  -2   45.30    6.90
   8  -1   2   44.60    2.90
  -8  -1  -2   40.50    6.10
   8  -1   2   48.00    3.20
   8  -1   2   46.90    3.20
  -8   1   2   42.00    5.10
   8  -1   2   46.40    3.40
  -8  -1  -2   39.90    6.70
   8  -1   2   47.70    3.00
  -8  -1  -2   39.60    6.60
  -8   1   2   32.40    4.70
   8  -1   2   44.20    2.80
  -8   1   2   36.80    4.70
  -8  -1  -2   35.80    4.50
   8  -1   2   44.80    3.30
  -8  -1  -2   34.90    5.80
  -8   1   2   38.20    4.20
   8  -1   2   47.40    3.30
   8  -1   2   45.60    3.10
  -8   1   2   36.30    4.90
   8  -1   2   45.90    3.20
  -8   1   2   25.80    5.30
  -8   1   2   36.70    4.30
  -8  -1   2   39.80    6.70
  -8  -1   2   27.00    5.20
   8   1   2   42.70    3.20
   8   1   2   38.50    2.80
   8  -1  -2   43.30    3.20
   8   1   2   39.90    2.90
  -8  -1   2   31.50    4.50
   8   1   2   40.20    3.20
  -8  -1   2   37.20    5.10
   8   1   2   43.10    3.30
   8   1   2   40.40    2.90
  -8  -1   2   43.10    5.00
   8   1   2   42.20    2.90
   8   1   2   39.10    3.30
   8   1   2   42.50    3.30
  -8  -1   2   35.20    5.00
  -8  -1   2   25.60    5.30
   8  -1  -2   40.30    3.00
  -8  -1   2   38.10    5.70
   8  -1  -2   41.10    3.10
  -8  -1   2   42.30    4.40
  -8  -1   2   31.10    6.10
   8  -1  -2   41.30    2.70
   8   1   2   40.30    3.20
  -8  -2  -2   57.89    6.40
   8  -2   2   60.29    4.30
  -8  -2  -2   61.39    7.70
   8  -2   2   66.59    4.20
  -8   2   2   68.99    5.30
   8  -2   2   65.89    4.00
  -8   2   2   51.99    7.20
  -8   2   2   50.39    5.50
  -8   2   2   65.09    5.60
   8  -2   2   63.49    3.90
  -8   2   2   61.49    5.30
   8  -2   2   66.79    4.40
   8  -2   2   66.99    4.10
  -8  -2  -2   56.09    5.40
   8  -2   2   65.59    4.20
  -8   2   2   57.89    5.70
  -8  -2  -2   63.79   10.80
   8  -2   2   62.39    4.30
  -8   2   2   60.09    6.10
   8  -2   2   64.29    4.10
   8  -2   2   67.89    4.00
  -8  -2  -2   57.99    7.30
  -8  -2  -2   55.09    7.40
  -8   2   2   61.89    6.20
   8   2   2   51.99    4.60
   8   2   2   64.79    4.30
  -8   2  -2   65.49    7.30
   8   2   2   66.29    4.40
  -8  -2   2   55.79    7.00
   8   2   2   60.99    3.80
  -8   2  -2   62.19    5.40
  -8  -2   2   44.10    9.20
   8   2   2   64.19    4.10
  -8   2  -2   61.69    6.50
  -8  -2   2   48.20    6.90
   8   2   2   66.09    4.00
  -8   2  -2   58.19    6.80
   8   2   2   62.89    3.90
  -8  -2   2   63.09    6.00
   8   2   2   59.09    4.30
  -8  -2   2   59.29    6.00
  -8   2  -2   56.69    5.10
   8  -2  -2   69.19    4.20
  -8   2  -2   59.79    5.60
  -8  -2   2   51.29    6.50
   8  -2  -2   62.09    4.20
  -8  -2   2   65.09    6.30
  -8  -2   2   54.49    7.60
   8  -2  -2   63.39    4.10
   8   2   2   65.99    4.30
   8  -2  -2   63.59    3.80
   8   2   2   63.49    4.00
  -8   2  -2   60.69    7.20
  -8   2  -2   59.89    5.40
  -8  -2   2   56.69    7.60
  -8   3   2  418.66   22.80
  -8   3   2  389.46   23.20
  -8  -3  -2  346.67   24.60
   8  -3   2  435.86   21.70
  -8   3   2  391.96   23.30
   8  -3   2  421.66   21.60
   8  -3   2  429.26   21.90
   8  -3   2  419.76   22.00
   8  -3   2  438.76   22.10
   8  -3   2  422.26   21.90
  -8  -3  -2  360.96   24.00
  -8  -3  -2  333.17   28.10
  -8   3   2  390.76   22.00
   8  -3   2  388.36   21.70
  -8   3   2  404.96   23.00
  -8   3   2  382.76   23.30
   8  -3   2  413.66   22.00
   8  -3   2  430.96   21.90
  -8  -3  -2  371.46   24.60
   8  -3   2  417.36   21.80
  -8  -3  -2  384.16   24.80
   8   3   2  394.16   21.80
  -8   3  -2  419.36   23.00
   8   3   2  412.06   21.60
   8  -3  -2  438.56   22.00
  -8  -3   2  360.76   24.80
  -8   3  -2  379.66   24.40
   8   3   2  387.56   22.20
  -8  -3   2  383.56   25.30
   8   3   2  408.86   21.70
   8  -3  -2  441.06   21.90
   8  -3  -2  414.96   21.60
  -8   3  -2  407.76   22.80
  -8  -3   2  394.96   23.10
   8   3   2  389.96   21.90
  -8   3  -2  411.26   22.80
   8   3   2  421.36   22.10
  -8  -3   2  377.16   24.40
   8   3   2  402.46   21.70
  -8   3  -2  427.46   23.20
   8   3   2  409.36   22.00
   8  -4   2   77.29    4.60
   8  -4   2   63.69    4.40
  -8   4   2   74.79    5.30
   8  -4   2   77.49    4.60
   8  -4   2   75.49    4.40
   8  -4   2   73.59    4.30
  -8   4   2   71.79    5.40
  -8  -4  -2   64.39    6.60
   8  -4   2   75.09    4.40
   8  -4   2   77.29    4.60
  -8  -4  -2   70.09    9.20
  -8  -4  -2   69.29   10.10
  -8   4   2   65.89    5.70
  -8   4   2   81.29    5.60
   8  -4   2   72.89    4.50
  -8   4   2   66.69    5.70
  -8   4   2   68.19    4.60
  -8  -4  -2   58.29    6.60
  -8  -4   2   65.49    9.20
  -8   4  -2   66.79    5.60
   8   4   2   75.19    4.60
  -8   4  -2   67.19    5.20
   8   4   2   72.39    4.50
  -8  -4   2   66.09    6.50
   8  -4  -2   78.49    4.60
  -8  -4   2   70.99    7.20
   8  -4  -2   77.89    4.40
  -8  -4   2   64.29    6.60
  -8  -4   2   71.59    5.60
  -8  -4   2   60.19    6.90
   8   4   2   73.79    4.30
  -8   4  -2   71.39    5.60
   8   4   2   67.69    4.70
  -8   4  -2   68.79    5.30
   8  -4  -2   75.79    4.20
   8   0   3   -0.50    0.70
  -8   0   3   -2.00    2.80
  -8   0  -3   -0.70    3.10
  -8   0   3   -0.50    2.20
   8   0   3    0.80    0.70
  -8   0   3   -0.70    2.30
  -8   0  -3   -2.80    4.40
   8   0   3   -0.60    0.70
   8   0   3   -0.10    0.50
  -8   0  -3    0.30    3.10
   8   0   3    0.20    0.60
   8   0   3    0.00    0.50
  -8   0   3   -1.60    3.10
  -8   0   3   -0.60    1.90
   8   0   3    0.60    0.60
   8   0   3    0.00    0.50
  -8   0  -3    0.40    1.90
  -8   0  -3    0.50    2.60
   8   0   3   -0.10    0.80
  -8   0   3    0.00    2.40
   8   0   3    0.40    0.80
  -8   0   3   -0.20    1.70
   8   0   3    0.30    0.70
  -8   0  -3    0.10    2.70
   8   0   3    1.40    0.70
  -8   0   3   -1.00    1.70
   8  -1   3   14.70    1.80
  -8  -1  -3   12.60    4.20
  -8  -1  -3   15.10    6.10
   8  -1   3   17.20    1.70
  -8  -1  -3   16.10    4.40
   8  -1   3   14.00    1.50
  -8   1   3   15.80    2.80
  -8  -1  -3   14.40    3.80
  -8  -1  -3   15.40    3.00
   8  -1   3   16.00    1.90
   8  -1   3   15.60    1.80
   8  -1   3   16.10    1.80
  -8   1   3   15.30    3.60
   8  -1   3   15.60    1.60
  -8   1   3   11.40    2.90
  -8   1   3   19.40    3.20
   8  -1   3   19.00    1.70
  -8   1   3   10.30    3.10
   8  -1   3   14.40    1.90
   8  -1   3   15.40    2.00
  -8   1   3   17.00    3.30
   8  -1   3   15.40    1.60
  -8  -1  -3   17.60    4.70
  -8   1   3   13.40    2.80
   8  -1  -3   16.40    1.70
   8  -1  -3   15.20    1.60
   8   1   3   16.00    1.60
   8   1   3   15.80    1.80
   8   1   3   15.80    1.60
  -8  -1   3   19.90    3.80
  -8   1  -3   16.40    4.00
   8   1   3   15.50    1.50
  -8  -1   3   15.60    3.50
   8   1   3   17.60    1.60
   8   1   3   15.60    1.50
  -8   1  -3   20.70    6.90
  -8   1  -3   18.80    3.10
  -8   1  -3   14.90    4.50
   8   1   3   16.00    1.50
  -8   1  -3   16.40    4.40
   8   1   3   15.30    1.90
  -8  -1   3   13.60    3.30
  -8  -1   3   12.80    3.70
   8   1   3   17.00    2.00
  -8   1  -3   13.20    2.60
  -8  -1   3   17.10    2.90
   8   1   3   15.70    1.80
  -8  -1   3   14.70    4.70
  -8  -1   3   13.20    2.90
   8   1   3   14.20    1.70
  -8   1  -3   14.10    4.20
   8  -1  -3   16.00    1.40
  -8  -1   3   19.90    3.20
   8  -2   3    5.10    0.90
  -8   2   3    8.00    1.60
   8  -2   3    6.30    1.20
  -8   2   3    8.10    2.20
  -8   2   3    5.00    2.80
  -8   2   3    7.10    2.40
  -8   2   3    8.90    2.30
  -8   2   3    5.90    2.30
  -8  -2  -3   13.30    6.00
  -8  -2  -3    7.20    3.30
   8  -2   3    7.10    1.10
  -8   2   3    5.00    2.60
   8  -2   3    7.10    1.30
   8  -2   3    7.50    1.00
   8  -2   3    5.50    1.20
   8  -2   3    6.20    1.00
  -8  -2  -3    8.00    3.70
  -8  -2  -3    5.80    3.00
   8  -2   3    8.80    1.50
   8  -2   3    5.90    1.10
  -8  -2  -3    1.40    5.00
   8  -2   3    7.40    1.30
  -8  -2  -3    6.00    3.60
   8  -2  -3    5.80    1.10
   8  -2  -3    6.70    0.90
  -8  -2   3    3.40    3.40
   8   2   3    6.50    1.20
  -8  -2   3    3.70    2.70
   8   2   3    6.20    1.00
   8   2   3    6.20    1.00
  -8  -2   3    3.20    2.80
   8   2   3    6.60    1.00
  -8  -2   3    7.10    2.30
  -8  -2   3    4.60    2.60
   8  -2  -3    6.00    1.20
   8   2   3    6.10    1.20
   8   2   3    7.10    1.40
  -8   2  -3    3.30    2.00
   8   2   3    5.10    0.90
  -8   2  -3    7.20    3.10
  -8  -2   3    3.70    2.60
  -8   2  -3    5.80    2.10
  -8  -2   3    3.20    3.40
  -8   2  -3    6.30    3.50
   8   2   3    6.70    1.20
  -8   2  -3    7.10    3.40
  -8   2  -3    3.90    4.00
   8   2   3    7.90    1.10
  -8   2  -3    5.60    2.20
  -8  -3  -3   10.90    3.30
   8  -3   3   12.90    1.70
  -8   3   3   13.20    2.50
   8  -3   3   12.30    1.40
   8  -3   3   11.90    1.50
   8  -3   3   12.90    1.60
  -8  -3  -3    7.50    2.80
   8  -3   3   13.80    1.60
  -8  -3  -3    6.10    4.90
  -8  -3  -3    9.90    3.30
  -8   3   3   13.90    2.60
   8  -3   3   13.10    1.30
   8  -3   3   12.10    1.40
  -8   3   3   12.30    2.60
  -8   3   3   16.10    1.90
  -8   3   3    8.00    2.50
  -8  -3  -3   12.10    5.10
  -8   3   3    6.70    2.40
   8  -3   3   11.80    1.60
  -8   3   3   16.70    2.90
  -8   3  -3   10.50    2.40
  -8  -3   3    9.80    2.70
  -8   3  -3   10.30    2.00
   8   3   3   13.30    1.40
   8   3   3   12.30    1.20
   8   3   3   15.70    1.60
   8   3   3   12.40    1.20
   8  -3  -3   13.20    1.50
  -8  -3   3   11.80    3.80
  -8   3  -3   12.60    2.60
   8   3   3   12.10    1.60
  -8   3  -3    7.40    3.10
   8   3   3   12.90    1.30
   8  -3  -3   13.70    1.20
  -8   3  -3   12.30    2.30
  -8  -3   3   19.50    3.10
  -8  -3   3   11.00    3.10
  -8  -3   3    6.80    4.00
  -8   3  -3    9.50    2.80
  -8  -3   3    9.70    3.50
   8   3   3   13.10    1.60
   8   3   3   13.80    1.30
   8  -3  -3   14.00    1.60
   8  -4   3   38.40    2.60
  -8   4   3   36.10    3.70
  -8   4   3   34.30    2.70
   8  -4   3   39.10    2.60
   8  -4   3   35.70    2.40
  -8   4   3   34.30    3.30
  -8   4   3   35.60    3.50
  -8  -4  -3   31.10    7.00
  -8  -4  -3   29.10    6.30
   8  -4   3   34.30    2.40
   8  -4   3   39.60    2.60
  -8   4   3   34.90    3.30
  -8  -4  -3   31.40    4.40
   8  -4  -3   38.40    2.60
   8  -4  -3   39.90    2.50
  -8  -4   3   32.50    4.50
  -8   4  -3   31.60    3.30
   8   4   3   33.80    2.50
   8   4   3   32.30    2.80
  -8  -4   3   26.30    5.60
   8   4   3   37.90    2.40
  -8  -4   3   33.60    4.60
  -8   4  -3   32.80    3.70
  -8   4  -3   36.00    3.30
   8  -4  -3   32.70    2.20
  -8  -4   3   38.30    3.60
  -8  -4   3   26.70    4.30
  -8  -4   3   27.10    4.00
   8   4   3   35.60    2.60
  -8   4  -3   34.60    3.50
  -8   0   4   31.30    3.60
   8   0   4   34.70    2.80
   8   0   4   35.90    2.50
   8   0   4   35.40    2.50
   8   0   4   34.20    2.60
   8   0   4   38.00    2.80
  -8   0   4   24.20    4.30
   8   0   4   35.20    2.40
  -8   0  -4   34.10    5.60
   8   0   4   31.60    2.50
  -8   0   4   34.40    4.00
  -8   0  -4   47.00    6.40
  -8   0   4   33.80    4.40
  -8   0  -4   38.70    5.20
   8   0   4   35.10    2.90
   8   0   4   33.00    2.60
   8   0   4   37.20    2.50
  -8   0  -4   42.90    8.90
  -8   0  -4   37.30    3.80
  -8   0   4   31.60    4.70
   8   0   4   35.90    2.60
   8   0   4   36.00    2.70
  -8   0   4   27.00    3.90
   8   0   4   34.00    2.90
  -8   0  -4   40.10    5.50
  -8   0   4   32.80    4.00
  -8   1   4   73.39    5.70
   8  -1   4   74.69    4.50
   8  -1   4   76.29    4.60
   8  -1   4   77.69    4.60
   8  -1   4   75.19    4.90
  -8   1   4   70.69    4.80
   8  -1   4   77.89    4.70
  -8   1   4   68.79    6.20
   8  -1   4   74.89    4.60
  -8   1   4   70.99    6.50
  -8  -1  -4   66.19    7.40
   8  -1   4   77.29    4.50
   8  -1   4   70.99    4.40
   8  -1   4   75.69    4.60
  -8   1   4   72.99    5.80
  -8  -1  -4   63.09    7.30
  -8   1   4   71.09    5.90
  -8  -1  -4   68.99    6.70
  -8  -1  -4   70.79    7.30
   8  -1   4   76.89    4.70
   8  -1   4   76.59    4.60
   8  -1   4   74.99    4.80
  -8  -1  -4   66.39   10.20
  -8   1   4   71.19    6.50
   8   1   4   76.09    4.80
  -8  -1   4   63.49    7.50
   8   1   4   80.29    4.80
   8   1   4   73.19    4.60
  -8   1  -4   68.19    7.40
  -8  -1   4   64.99    6.20
   8   1   4   74.89    4.70
  -8  -1   4   66.89    5.40
   8   1   4   77.49    4.50
  -8   1  -4   73.69    6.80
  -8   1  -4   66.49    7.20
   8   1   4   75.89    4.40
  -8  -1   4   75.19    6.70
   8   1   4   75.79    4.70
  -8  -1   4   71.39    6.50
  -8   1  -4   72.79    7.60
   8   1   4   74.99    4.90
  -8  -1   4   73.19    5.90
   8   1   4   77.29    4.50
  -8   1  -4   77.99   10.20
   8   1   4   67.49    4.50
   8   1   4   78.39    4.60
   8   1   4   72.09    4.50
  -8  -1   4   69.59    6.20
  -8   1  -4   73.59    5.60
  -8   2   4  188.18   12.90
  -8   2   4  190.48   12.90
  -8   2   4  213.48   12.80
   8  -2   4  225.38   11.70
  -8   2   4  200.98   11.70
  -8   2   4  200.08   13.00
  -8  -2  -4  195.38   14.20
   8  -2   4  221.58   11.70
   8  -2   4  195.38   11.50
   8  -2   4  222.08   11.80
   8  -2   4  225.48   11.50
  -8  -2  -4  188.68   13.30
  -8  -2  -4  195.58   17.10
  -8   2   4  216.38   12.50
  -8  -2  -4  207.98   14.20
   8  -2   4  226.48   11.60
   8  -2   4  216.28   11.70
   8  -2   4  220.68   11.50
   8  -2   4  219.28   11.60
  -8   2   4  199.88   12.60
   8   2   4  211.88   11.50
   8   2   4  212.58   11.50
  -8   2  -4  190.88   14.00
   8   2   4  205.58   11.50
   8   2   4  224.48   11.80
  -8   2  -4  199.38   13.50
  -8   2  -4  174.28   13.60
  -8  -2   4  205.08   13.10
  -8  -2   4  206.18   12.60
   8   2   4  214.48   11.40
   8   2   4  220.68   11.80
  -8  -2   4  206.98   12.90
   8   2   4  187.28   11.30
  -8   2  -4  220.78   12.50
  -8   2  -4  209.18   14.10
  -8  -2   4  203.58   14.40
  -8   2  -4  204.98   12.40
   8   2   4  220.78   11.70
  -8  -2   4  198.58   12.70
  -8  -2   4  207.68   13.20
   8  -2  -4  197.08   11.20
   8  -2  -4  215.38   11.60
   8  -2  -4  214.88   11.50
   8   2   4  206.68   11.70
  -8   2  -4  189.58   16.50
   8  -3   4    0.20    0.40
   8  -3   4   -0.10    0.60
  -8  -3  -4   -0.50    2.80
   8  -3   4    0.60    0.60
  -8  -3  -4   -1.60    3.50
   8  -3   4    0.40    0.50
   8  -3   4   -0.70    0.50
  -8  -3  -4    0.10    2.00
   8   3   4    1.60    0.70
   8   3   4    0.30    0.60
  -8  -3   4    2.20    2.20
  -8   3  -4   -0.60    1.50
  -8   3  -4    0.40    1.40
   8   3   4    0.80    0.50
  -8  -3   4   -0.30    1.70
   8   3   4    0.10    0.40
  -8  -3   4    2.10    1.80
  -8  -3   4   -0.20    1.80
   8   3   4   -0.10    0.50
   8   3   4    0.50    0.50
  -8   3  -4    0.20    1.80
   8   3   4    0.10    0.40
  -8  -3   4   -0.80    2.10
  -8   3  -4   -1.10    1.30
  -8   3  -4   -0.30    2.10
  -8   0   5    1.10    1.60
  -8   0  -5    0.30    2.00
   8   0   5   -0.10    0.50
  -8   0   5    0.00    1.60
  -8   0   5   -0.60    2.00
   8   0   5    0.20    0.40
   8   0   5    0.70    0.40
  -8   0   5    1.30    1.30
  -8   0   5    2.20    1.40
   8   0   5    0.20    0.40
   8   0   5    0.30    0.60
   8   0   5    0.40    0.40
   8   0   5    0.30    0.40
   8   0   5    0.50    0.60
  -8   0   5    0.00    1.90
   8   0   5    3.40    0.90
   8   0   5   -0.10    0.60
   8   0   5    0.10    0.40
   8   0   5   -0.10    0.50
  -8   1   5   -0.80    1.40
   8  -1   5    1.50    0.70
   8  -1   5    1.60    0.70
   8  -1   5    1.40    0.60
   8  -1   5    2.10    0.50
   8  -1   5    3.90    0.70
  -8   1   5    0.40    1.90
  -8  -1  -5    1.00    2.40
  -8   1   5    2.20    1.40
   8  -1   5    1.50    0.70
  -8  -1  -5    1.00    3.40
  -8   1   5    1.50    1.60
  -8   1   5    0.30    1.50
   8  -1   5    2.90    0.70
  -8  -1  -5   -0.80    2.20
   8   1   5    1.80    0.50
  -8   1  -5    2.30    2.60
  -8  -1   5    0.90    2.00
   8   1   5    1.80    0.50
   8   1   5    1.60    0.70
  -8   1  -5    1.60    3.30
   8   1   5    2.00    0.60
   8   1   5    1.30    0.40
  -8  -1   5    1.40    2.10
   8   1   5    1.20    0.80
  -8  -1   5    1.30    1.50
   8   1   5    1.60    0.50
   8   1   5    1.90    0.60
  -8   1  -5    2.20    2.10
  -8   1  -5    2.10    2.40
  -8  -1   5    1.40    1.60
   8   1   5    2.20    0.60
  -8   1  -5    2.30    2.10
  -9   0   0   -1.00    2.60
   9   0   0    1.70    0.60
   9   0   0    0.30    0.50
   9   0   0   -0.40    0.70
  -9   0   0   -0.90    1.80
  -9   0   0   -0.80    2.20
  -9   0   0    0.60    2.00
  -9   0   0    1.30    2.80
  -9   0   0    0.60    1.70
   9   0   0    0.30    0.60
   9   0   0    0.10    0.50
   9   1   0   29.80    2.30
  -9  -1   0   26.40    3.60
  -9  -1   0   23.80    4.20
   9  -1   0   31.80    2.50
   9   1   0   29.10    2.20
   9   1   0   29.40    2.10
   9   1   0   30.20    2.40
  -9  -1   0   23.20    4.70
  -9  -1   0   26.00    4.70
  -9   1   0   19.70    4.30
   9  -1   0   31.90    2.20
  -9   1   0   29.50    4.00
  -9   1   0   31.10    3.30
  -9   1   0   29.20    3.80
   9   1   0   30.30    2.00
  -9   1   0   20.50    3.80
  -9   1   0   27.80    3.70
   9  -1   0   32.30    2.40
   9  -1   0   32.30    2.10
  -9  -1   0   26.70    3.60
   9   2   0    0.60    0.70
  -9  -2   0   -1.60    2.40
  -9   2   0    0.40    1.40
  -9  -2   0   -0.70    2.20
   9  -2   0    1.10    0.70
  -9  -2   0    2.90    2.40
  -9   2   0    0.90    1.80
  -9   2   0    0.90    1.90
  -9  -2   0    0.50    2.50
   9  -2   0    1.60    0.50
   9  -2   0    0.20    0.40
  -9   2   0   -0.80    1.60
   9   2   0    0.20    0.50
   9  -2   0    0.00    0.50
  -9  -2   0    0.00    1.70
  -9  -2   0   -0.40    2.90
   9  -2   0    0.80    0.70
   9  -3   0    2.70    0.80
   9   3   0    2.20    0.60
  -9  -3   0    1.70    2.10
  -9  -3   0    2.00    2.10
   9  -3   0    3.20    0.60
   9  -3   0    2.30    0.50
   9   3   0    2.30    0.80
  -9   3   0    3.20    1.80
  -9  -3   0    1.60    2.30
  -9   3   0    3.80    1.50
  -9   3   0    2.70    1.90
   9  -3   0    3.10    0.70
  -9  -3   0    2.10    2.30
  -9  -3   0    1.70    3.30
   9  -3   0    3.50    0.70
  -9   0  -1    1.60    3.10
  -9   0  -1   -0.20    2.40
  -9   0  -1    0.00    1.70
   9   0   1    0.70    0.50
   9   0   1    0.40    0.70
   9   0  -1    0.40    0.50
  -9   0   1   -1.40    1.90
  -9   0   1    0.00    1.50
  -9   0  -1   -2.10    1.90
   9   0   1    0.50    0.50
  -9   0   1    0.20    2.00
   9   0  -1    0.20    0.60
  -9   0   1   -0.10    2.10
   9   0   1   -0.10    0.70
   9   0  -1    0.70    0.60
  -9   0   1   -0.40    1.80
  -9   0   1   -1.50    2.50
  -9   0  -1   -2.00    2.70
   9   0   1    0.20    0.50
   9   0   1   -0.30    0.50
  -9   0  -1    2.20    2.70
  -9   1   1    8.60    2.40
  -9  -1  -1    7.60    3.30
  -9  -1  -1    8.70    3.10
  -9  -1  -1    8.40    4.20
  -9   1   1   14.40    2.80
  -9   1   1    8.60    2.10
   9  -1   1   11.90    1.20
   9   1  -1   10.30    1.10
   9  -1   1   11.30    1.20
  -9   1   1   11.30    2.30
   9   1  -1   10.50    1.10
  -9  -1  -1    8.50    2.40
  -9   1   1    6.90    3.10
   9  -1   1   10.60    1.40
   9  -1   1    9.60    1.20
   9  -1   1    8.70    1.00
   9  -1   1   10.70    1.60
  -9  -1  -1    9.50    3.40
  -9  -1  -1    8.40    3.00
  -9   1   1   10.70    2.80
   9   1   1   12.10    1.50
   9  -1  -1   13.90    1.10
  -9   1  -1    6.00    2.90
  -9  -1   1    9.60    2.60
  -9   1  -1    6.80    2.70
  -9   1  -1    7.20    3.20
  -9   1  -1   11.50    2.60
   9  -1  -1   10.50    1.20
  -9   1  -1    8.80    2.30
  -9   1  -1   10.20    2.60
  -9  -1   1    8.70    2.80
  -9  -1   1    9.00    3.30
   9   1   1   12.10    1.20
   9   1   1   12.50    1.40
   9  -1  -1   10.90    1.40
  -9  -1   1   10.80    2.70
   9  -1  -1   13.10    1.40
  -9  -1   1    9.90    3.20
   9   1   1   11.40    1.10
   9   1   1   12.20    1.50
   9   1   1   10.70    1.10
   9   1   1   10.40    1.40
   9  -2   1   -0.50    0.40
   9  -2   1    0.00    0.40
  -9   2   1    0.00    1.90
   9   2  -1   -0.20    0.40
  -9  -2  -1   -0.80    2.30
   9  -2   1    0.30    0.60
  -9   2   1   -0.10    1.20
  -9   2   1   -0.10    1.40
   9  -2   1    0.50    0.50
  -9  -2  -1    0.00    2.30
   9  -2   1    0.70    0.50
  -9  -2  -1    0.10    2.40
  -9   2   1    2.00    1.60
  -9   2   1    1.30    1.90
  -9  -2  -1    0.10    2.90
  -9  -2  -1    2.00    1.70
  -9  -2  -1   -0.10    2.10
  -9   2   1    0.10    1.70
   9  -2   1   -0.30    0.60
  -9   2  -1    3.40    1.70
   9   2   1    0.30    0.50
  -9  -2   1    1.00    1.70
  -9  -2   1    0.90    2.60
  -9  -2   1   -0.70    2.40
   9   2   1    0.60    0.70
  -9   2  -1   -0.90    1.50
  -9   2  -1    0.20    1.70
  -9   2  -1   -0.60    2.30
   9   2   1    0.20    0.40
  -9  -2   1    2.80    2.50
   9   2   1    0.70    0.50
   9  -2  -1    1.50    0.70
  -9  -2   1    0.50    2.90
   9   2   1    1.60    0.60
   9  -2  -1    1.00    0.60
   9  -2  -1   -0.20    0.40
  -9  -3  -1   70.59    5.90
  -9   3   1   49.50    4.50
   9  -3   1   62.29    3.80
  -9  -3  -1   78.79    5.70
   9  -3   1   61.99    3.70
  -9   3   1   54.69    4.80
  -9   3   1   52.39    4.40
   9  -3   1   60.29    3.60
   9  -3   1   61.09    3.50
  -9   3   1   46.70    4.90
   9  -3  -1   60.49    3.70
   9  -3  -1   60.09    3.70
   9   3   1   68.19    3.80
  -9  -3   1   43.90    5.40
  -9  -3   1   44.70    5.70
   9   3   1   69.79    3.60
  -9  -3   1   43.40    5.10
   9  -3  -1   49.90    3.40
   9   0  -2    5.50    0.70
  -9   0  -2    3.60    3.00
  -9   0  -2    6.10    2.00
   9   0   2    4.80    0.80
  -9   0   2    7.90    2.30
  -9   0   2    3.60    1.80
  -9   0  -2    2.80    3.30
  -9   0   2    4.30    2.70
   9   0   2    5.80    1.00
  -9   0  -2    2.20    2.50
   9   0   2    5.00    0.90
   9   0   2    4.90    1.00
  -9   0   2    6.00    1.80
  -9   0  -2    5.60    2.70
   9   0   2    5.90    0.80
   9   0   2    5.70    0.80
  -9   0   2    3.90    2.10
   9   0   2    4.70    0.70
  -9   0  -2    3.10    2.80
  -9   0   2    3.70    2.30
   9   0   2    6.30    1.10
   9  -1   2    5.10    0.80
   9  -1   2    4.60    0.70
  -9   1   2    4.00    1.60
   9  -1   2    3.20    0.70
   9  -1   2    4.80    0.90
  -9  -1  -2    5.60    3.00
  -9   1   2    5.00    2.30
  -9   1   2    3.50    1.80
  -9   1   2    3.80    2.20
  -9  -1  -2    4.70    3.70
   9  -1   2    5.00    0.80
  -9   1   2    3.10    1.90
  -9  -1  -2    2.90    2.70
  -9   1   2    3.70    1.70
  -9  -1  -2    4.40    2.50
  -9  -1  -2    4.50    1.80
   9  -1   2    4.30    0.70
   9  -1   2    5.40    1.10
  -9  -1  -2    5.20    2.70
  -9   1  -2    7.10    2.00
   9   1   2    4.80    0.70
  -9   1  -2    2.30    2.30
   9   1   2    4.80    0.70
  -9   1  -2    3.60    3.30
   9   1   2    4.40    0.70
  -9  -1   2    4.90    2.10
   9  -1  -2    5.90    0.90
   9   1   2    4.70    0.80
   9   1   2    5.50    0.90
  -9  -1   2    2.10    2.20
  -9   1  -2    2.40    2.50
  -9   1  -2    4.00    1.80
  -9  -1   2    3.90    2.00
  -9  -1   2    4.50    1.90
   9  -1  -2    5.00    0.90
   9   1   2    3.60    0.90
  -9  -1   2    4.80    2.80
  -9   1  -2    3.60    2.40
   9  -1  -2    4.80    0.70
   9   1   2    6.00    1.00
  -9   2   2  173.48   11.20
   9  -2   2  202.28   10.10
  -9  -2  -2  160.68   12.20
   9  -2   2  201.48   10.10
   9  -2   2  181.18   10.10
  -9  -2  -2  159.48   12.10
  -9  -2  -2  155.78   12.30
   9  -2   2  199.88   10.00
   9  -2   2  189.78   10.20
  -9   2   2  165.88   11.40
   9  -2   2  205.98   10.20
   9  -2   2  187.58    9.90
  -9   2   2  183.68   11.10
   9  -2   2  209.28   10.40
  -9   2   2  175.38   11.40
  -9   2   2  182.18   10.80
   9  -2  -2  192.78    9.90
   9  -2  -2  198.68   10.10
  -9   2  -2  151.38   11.90
   9   2   2  190.88   10.30
   9   2   2  193.68   10.00
  -9   2  -2  180.08   11.00
   9   2   2  175.68   10.20
  -9  -2   2  171.38   12.50
   9   2   2  185.38   10.20
  -9  -2   2  184.88   11.20
  -9  -2   2  149.39   11.60
   9   2   2  183.28   10.00
  -9  -2   2  154.68   11.90
  -9   2  -2  173.48   11.10
  -9   2  -2  177.58   11.00
   9   2   2  162.58    9.90
   9  -2  -2  199.58   10.30
   9   2   2  187.48   10.10
   9   0   3    0.80    0.40
  -9   0  -3   -0.70    2.30
  -9   0  -3    0.30    2.10
   9   0   3    0.30    0.40
  -9   0   3   -0.80    1.30
  -9   0   3    1.20    1.90
   9   0   3   -0.20    0.50
   9   0   3    0.10    0.40
  -9   0  -3    0.40    2.70
  -9   0   3   -1.30    1.70
  -9   0  -3    0.80    1.50
   9   0   3    0.20    0.40
  -9   0  -3    0.20    1.90
   9   0   3    0.80    0.40
   9   0   3    0.30    0.60
  -9   0   3    0.30    1.60
  -9   0  -3   -0.50    2.00
  -9  -1  -3   53.19    5.30
   9  -1   3   67.19    3.70
  -9   1   3   59.39    4.90
  -9  -1  -3   59.29    6.00
  -9  -1  -3   61.09    5.90
   9  -1   3   64.79    3.70
   9  -1   3   66.69    3.90
  -9   1   3   58.99    5.20
  -9  -1  -3   48.20    7.80
  -9   1   3   63.99    4.80
   9  -1   3   65.19    3.70
  -9  -1  -3   53.69    5.70
   9  -1   3   68.89    4.00
   9  -1   3   60.69    3.60
  -9   1   3   58.69    5.20
   9   1   3   60.69    3.80
   9   1   3   66.59    4.00
   9   1   3   66.39    3.90
  -9  -1   3   59.09    4.90
  -9   1  -3   62.89    4.70
  -9  -1   3   62.89    5.50
   9   1   3   59.09    3.60
  -9   1  -3   53.69    5.40
  -9   1  -3   51.49    5.90
   9   1   3   63.99    3.70
   9   1   3   63.49    3.70
  -9  -1   3   62.79    5.20
  -9   1  -3   51.39    5.60
;
_shelx_hkl_checksum              77617
_shelx_res_file
;
    10020sadabs.res created by SHELXL-2014/7
TITL 10020sadabs_Pbcn in Pbcn #60
REM reset to Pbcn #60
CELL 1.54178 8.0707 7.8733 7.9305 90 90 90
ZERR 4 0.0014 0.0013 0.0013 0 0 0
LATT 1
SYMM 0.5-X,0.5-Y,0.5+Z
SYMM 0.5+X,0.5-Y,-Z
SYMM -X,+Y,0.5-Z
SFAC C H O
UNIT 16 24 12
L.S. 10
PLAN  20
SIZE 1.317 0.503 0.5
TEMP -173
FMAP 2
ACTA
BOND $H
CONF
EQIV $1 x, -y, z+1/2
HTAB C2 O1_$1
EQIV $2 -x+1/2, y+1/2, z
HTAB C2 O1_$2
EQIV $3 -x, y, 1/2-z
MPLA O1 O2 C1 C2
MPLA O1_$3 O2 C1_$3 C2_$3
WGHT    0.027600    0.160500
EXTI    0.012022
FVAR       1.67147
O1    3    0.144838    0.044034    0.349287    11.00000    0.03040    0.02916 =
         0.02458   -0.00022   -0.00291    0.00639
O2    3    0.000000    0.267406    0.250000    10.50000    0.03452    0.02111 =
         0.02033    0.00000   -0.00974    0.00000
C1    1    0.082051    0.178202    0.376066    11.00000    0.01873    0.02305 =
         0.01953    0.00406   -0.00053   -0.00350
C2    1    0.087742    0.276974    0.535802    11.00000    0.03025    0.02471 =
         0.01860    0.00108   -0.00213   -0.00459
AFIX 137
H2A   2    0.131499    0.205111    0.626341    11.00000   -1.50000
H2B   2   -0.024268    0.314800    0.565238    11.00000   -1.50000
H2C   2    0.159745    0.376100    0.521089    11.00000   -1.50000
AFIX   0
HKLF 4
REM  10020sadabs_Pbcn in Pbcn #60
REM R1 =  0.0248 for     445 Fo > 4sig(Fo)  and  0.0251 for all     452 data
REM     35 parameters refined using      0 restraints
END
WGHT      0.0276      0.1605
REM Highest difference peak  0.160,  deepest hole -0.143,  1-sigma level  0.037
Q1    1   0.0912  0.2396  0.4503  11.00000  0.05    0.16
Q2    1   0.0000  0.3637  0.2500  10.50000  0.05    0.13
Q3    1   0.0875  0.3936  0.5249  11.00000  0.05    0.12
Q4    1   0.1568  0.1440  0.3578  11.00000  0.05    0.11
Q5    1   0.0170  0.2207  0.3190  11.00000  0.05    0.10
Q6    1   0.0718  0.0884  0.3872  11.00000  0.05    0.09
Q7    1   0.1226 -0.0621  0.2732  11.00000  0.05    0.09
Q8    1  -0.0116  0.4068  0.4979  11.00000  0.05    0.08
Q9    1   0.2045 -0.0426  0.4131  11.00000  0.05    0.08
Q10   1   0.0000  0.1143  0.2500  10.50000  0.05    0.08
Q11   1   0.1594  0.5116  0.6360  11.00000  0.05    0.08
Q12   1   0.2151 -0.0892  0.3588  11.00000  0.05    0.08
Q13   1   0.1809 -0.0025  0.3909  11.00000  0.05    0.07
Q14   1   0.2524  0.5133  0.4879  11.00000  0.05    0.07
Q15   1   0.0201  0.0254  0.4685  11.00000  0.05    0.07
Q16   1   0.0000 -0.0397  0.2500  10.50000  0.05    0.06
Q17   1   0.2380  0.0876  0.6181  11.00000  0.05    0.06
Q18   1   0.2103  0.1499  0.6017  11.00000  0.05    0.05
Q19   1   0.0457 -0.0882  0.4693  11.00000  0.05    0.05
Q20   1   0.1031  0.1069  0.6324  11.00000  0.05    0.05
;
_shelx_res_checksum              56213
loop_
_space_group_symop_operation_xyz
'x, y, z'
'-x+1/2, -y+1/2, z+1/2'
'x+1/2, -y+1/2, -z'
'-x, y, -z+1/2'
'-x, -y, -z'
'x-1/2, y-1/2, -z-1/2'
'-x-1/2, y-1/2, z'
'x, -y, z-1/2'
loop_
_atom_site_type_symbol
_atom_site_label
_atom_site_fract_x
_atom_site_fract_y
_atom_site_fract_z
_atom_site_U_iso_or_equiv
_atom_site_adp_type
_atom_site_calc_flag
_atom_site_occupancy
O O1 0.14484(9) 0.04403(9) 0.34929(9) 0.0280(3) Uani d 1
O O2 0.0000 0.26741(12) 0.2500 0.0253(3) Uani d 1
C C1 0.08205(11) 0.17820(12) 0.37607(12) 0.0204(3) Uani d 1
C C2 0.08774(13) 0.27697(12) 0.53580(13) 0.0245(3) Uani d 1
H H2A 0.1315 0.2051 0.6263 0.037 Uiso calc 1
H H2B -0.0243 0.3148 0.5652 0.037 Uiso calc 1
H H2C 0.1597 0.3761 0.5211 0.037 Uiso calc 1
loop_
_atom_site_aniso_label
_atom_site_aniso_U_11
_atom_site_aniso_U_22
_atom_site_aniso_U_33
_atom_site_aniso_U_12
_atom_site_aniso_U_13
_atom_site_aniso_U_23
O1 0.0304(5) 0.0292(5) 0.0246(5) 0.0064(3) -0.0029(3) -0.0002(3)
O2 0.0345(6) 0.0211(5) 0.0203(6) 0.000 -0.0097(4) 0.000
C1 0.0187(5) 0.0230(5) 0.0195(6) -0.0035(4) -0.0005(4) 0.0041(4)
C2 0.0303(6) 0.0247(6) 0.0186(6) -0.0046(4) -0.0021(4) 0.0011(4)
loop_
_atom_type_symbol
_atom_type_description
_atom_type_scat_dispersion_real
_atom_type_scat_dispersion_imag
_atom_type_scat_source
C C 0.0181 0.0091 'International Tables Vol C Tables 4.2.6.8 and 6.1.1.4'
H H 0.0000 0.0000 'International Tables Vol C Tables 4.2.6.8 and 6.1.1.4'
O O 0.0492 0.0322 'International Tables Vol C Tables 4.2.6.8 and 6.1.1.4'
loop_
_geom_angle_atom_site_label_1
_geom_angle_atom_site_label_2
_geom_angle_atom_site_label_3
_geom_angle_site_symmetry_1
_geom_angle
C1 O2 C1 4 119.29(10)
O1 C1 O2 . 121.52(9)
O1 C1 C2 . 127.06(9)
O2 C1 C2 . 111.30(8)
C1 C2 H2A . 109.5
C1 C2 H2B . 109.5
H2A C2 H2B . 109.5
C1 C2 H2C . 109.5
H2A C2 H2C . 109.5
H2B C2 H2C . 109.5
loop_
_geom_bond_atom_site_label_1
_geom_bond_atom_site_label_2
_geom_bond_site_symmetry_2
_geom_bond_distance
O1 C1 . 1.1907(12)
O2 C1 4 1.3897(11)
O2 C1 . 1.3897(11)
C1 C2 . 1.4871(14)
C2 H2A . 0.9800
C2 H2B . 0.9800
C2 H2C . 0.9800
loop_
_geom_hbond_atom_site_label_D
_geom_hbond_atom_site_label_H
_geom_hbond_atom_site_label_A
_geom_hbond_site_symmetry_A
_geom_hbond_distance_DH
_geom_hbond_distance_HA
_geom_hbond_distance_DA
_geom_hbond_angle_DHA
C2 H2A O1 8_556 0.98 2.64 3.5750(13) 159.0
C2 H2C O1 7_665 0.98 2.47 3.3567(13) 150.6
loop_
_geom_torsion_atom_site_label_1
_geom_torsion_atom_site_label_2
_geom_torsion_atom_site_label_3
_geom_torsion_atom_site_label_4
_geom_torsion_site_symmetry_1
_geom_torsion
C1 O2 C1 O1 4 32.13(7)
C1 O2 C1 C2 4 -151.49(8)

_cod_database_fobs_code 2020594
