#------------------------------------------------------------------------------
#$Date: 2020-02-01 07:52:50 +0200 (Sat, 01 Feb 2020) $
#$Revision: 247437 $
#$URL: file:///home/coder/svn-repositories/cod/cif/2/02/19/2021969.cif $
#------------------------------------------------------------------------------
#
# This file is available in the Crystallography Open Database (COD),
# http://www.crystallography.net/. The original data for this entry
# were provided by IUCr Journals, http://journals.iucr.org/.
#
# The file may be used within the scientific community so long as
# proper attribution is given to the journal article from which the
# data were obtained.
#
data_2021969
loop_
_publ_author_name
'Rajendrakumar, Satyasree'
'Durga, Anuja Surampudi Venkata Sai'
'Nanubolu, Jagadeesh Babu'
'Balasubramanian, Sridhar'
_publ_section_title
;
 Two novel polymorphic forms of iron-chelating agent deferiprone
;
_journal_coeditor_code           CU3158
_journal_issue                   2
_journal_name_full               'Acta Crystallographica Section C'
_journal_page_first              193
_journal_page_last               200
_journal_paper_doi               10.1107/S2053229620000959
_journal_volume                  76
_journal_year                    2020
_chemical_formula_iupac          'C7 H9 N O2'
_chemical_formula_moiety         'C7 H9 N O2'
_chemical_formula_sum            'C7 H9 N O2'
_chemical_formula_weight         139.15
_chemical_name_common            Deferiprone
_chemical_name_systematic
;
3-Hydroxy-1,2-dimethylpyridin-4-one
;
_space_group_crystal_system      monoclinic
_space_group_IT_number           14
_space_group_name_Hall           '-P 2ybc'
_space_group_name_H-M_alt        'P 1 21/c 1'
_atom_sites_solution_hydrogens   mixed
_audit_creation_method           SHELXL-2018/3
_cell_angle_alpha                90
_cell_angle_beta                 95.6583(8)
_cell_angle_gamma                90
_cell_formula_units_Z            4
_cell_length_a                   6.48470(10)
_cell_length_b                   13.6853(3)
_cell_length_c                   7.14620(10)
_cell_measurement_reflns_used    5426
_cell_measurement_temperature    100(2)
_cell_measurement_theta_max      30.49
_cell_measurement_theta_min      2.66
_cell_volume                     631.100(19)
_computing_cell_refinement
;
<i>SAINT</i> (Bruker, 2016)
;
_computing_data_collection
;
<i>APEX3</i> (Bruker, 2016)
;
_computing_data_reduction
;
<i>SAINT</i> (Bruker, 2016)
;
_computing_molecular_graphics
;
DIAMOND (Brandenburg & Putz, 2005)
;
_computing_publication_material
;
<i>SHELXTL</i> (Bruker, 2016)
;
_computing_structure_refinement
;
<i>SHELXL2014</i> (Sheldrick, 2015b)
;
_computing_structure_solution
;
<i>SHELXT</i> (Sheldrick, 2015a)
;
_diffrn_ambient_temperature      100(2)
_diffrn_measured_fraction_theta_full 0.997
_diffrn_measured_fraction_theta_max 0.996
_diffrn_measurement_device_type  'Bruker D8 QUEST PHOTON-100'
_diffrn_measurement_method       '\w and \f'
_diffrn_radiation_type           MoK\a
_diffrn_radiation_wavelength     0.71073
_diffrn_reflns_av_R_equivalents  0.0286
_diffrn_reflns_av_unetI/netI     0.0276
_diffrn_reflns_limit_h_max       9
_diffrn_reflns_limit_h_min       -9
_diffrn_reflns_limit_k_max       19
_diffrn_reflns_limit_k_min       -19
_diffrn_reflns_limit_l_max       10
_diffrn_reflns_limit_l_min       -10
_diffrn_reflns_number            7716
_diffrn_reflns_theta_full        25.242
_diffrn_reflns_theta_max         30.531
_diffrn_reflns_theta_min         2.977
_exptl_absorpt_coefficient_mu    0.108
_exptl_absorpt_correction_T_max  0.7461
_exptl_absorpt_correction_T_min  0.7049
_exptl_absorpt_correction_type   multi-scan
_exptl_absorpt_process_details
;
(SADABS; Bruker, 2016)
;
_exptl_crystal_colour            colorless
_exptl_crystal_density_diffrn    1.465
_exptl_crystal_description       block
_exptl_crystal_F_000             296
_exptl_crystal_size_max          0.330
_exptl_crystal_size_mid          0.180
_exptl_crystal_size_min          0.160
_refine_diff_density_max         0.426
_refine_diff_density_min         -0.271
_refine_ls_extinction_method     none
_refine_ls_goodness_of_fit_ref   1.068
_refine_ls_hydrogen_treatment    mixed
_refine_ls_matrix_type           full
_refine_ls_number_parameters     97
_refine_ls_number_reflns         1922
_refine_ls_number_restraints     0
_refine_ls_restrained_S_all      1.068
_refine_ls_R_factor_all          0.0462
_refine_ls_R_factor_gt           0.0389
_refine_ls_shift/su_max          0.000
_refine_ls_shift/su_mean         0.000
_refine_ls_structure_factor_coef Fsqd
_refine_ls_weighting_details
'w=1/[\s^2^(Fo^2^)+(0.0495P)^2^+0.2705P] where P=(Fo^2^+2Fc^2^)/3'
_refine_ls_weighting_scheme      calc
_refine_ls_wR_factor_gt          0.1006
_refine_ls_wR_factor_ref         0.1046
_reflns_number_gt                1681
_reflns_number_total             1922
_reflns_threshold_expression     'I > 2\s(I)'
_cod_data_source_file            cu3158sup1.cif
_cod_data_source_block           Ib
_cod_original_sg_symbol_H-M      'P 21/c'
_cod_database_code               2021969
_shelx_space_group_comment
;
The symmetry employed for this shelxl refinement is uniquely defined
by the following loop, which should always be used as a source of
symmetry information in preference to the above space-group names.
They are only intended as comments.
;
_shelx_estimated_absorpt_t_min   0.965
_shelx_estimated_absorpt_t_max   0.983
_shelx_hkl_file
;
   1   0   0 345.451 14.0174   1
  -1   0   0 337.685 13.9466   1
  -2   0   0 10.3310 0.45133   3
   2   0   0 10.4868 0.45969   3
  -2   0   0 10.5784 0.46225   3
   2   0   0 9.78041 0.45785   3
   3   0   0 86.3344 3.11561   3
   3   0   0 88.0706 3.10613   3
  -3   0   0 90.3036 3.10646   3
  -3   0   0 85.9681 3.07707   3
   4   0   0 28.0215 1.18485   3
  -4   0   0 28.2333 1.12978   3
   4   0   0 28.4360 1.18250   3
   5   0   0 150.095 5.37634   3
  -5   0   0 153.665 5.34558   3
   5   0   0 150.763 5.38910   3
  -5   0   0 149.826 5.28941   3
   6   0   0 178.403 6.38173   3
   6   0   0 176.001 6.37587   3
  -6   0   0 179.866 6.24679   3
  -6   0   0 178.027 6.30199   3
   7   0   0 11.0169 0.84966   3
  -7   0   0 9.41706 0.71408   3
  -7   0   0 9.87354 0.90098   3
   8   0   0 70.2378 3.00601   3
  -8   0   0 69.8208 2.74798   3
   9   0   0 80.5728 3.51048   3
  -9   0   0 80.8153 3.24939   3
  -1  -1   0 1073.68 38.5687   1
   1  -1   0 1005.02 37.3079   1
   1   1   0 1049.84 38.5116   1
  -1   1   0 1080.25 37.4504   1
  -2  -1   0 389.254 13.1372   3
  -2  -1   0 385.872 13.1259   3
   2  -1   0 373.466 13.1171   3
   2   1   0 393.581 13.1464   3
   2   1   0 390.339 13.1377   3
  -2   1   0 396.731 13.1066   3
   3  -1   0 4.39540 0.31469   3
   3  -1   0 4.57143 0.32248   3
   3  -1   0 5.32463 0.38860   2
  -3  -1   0 4.36607 0.32032   3
  -3  -1   0 4.82485 0.34983   3
  -3   1   0 4.52366 0.31455   3
   3   1   0 4.93614 0.35566   3
   3   1   0 4.30383 0.33525   3
  -3   1   0 5.65565 0.30269   3
   4  -1   0 8.15590 0.49962   3
  -4  -1   0 7.86871 0.51538   3
  -4  -1   0 8.51191 0.47992   3
   4  -1   0 7.73582 0.48942   3
  -4   1   0 8.38186 0.44532   3
  -4   1   0 8.19035 0.48801   3
   4   1   0 8.46630 0.53306   3
   4   1   0 8.34834 0.51661   3
   5  -1   0 77.1197 2.87119   3
   5  -1   0 75.5943 2.85307   3
  -5  -1   0 76.5338 2.85665   3
  -5  -1   0 76.4886 2.80917   3
  -5   1   0 76.6935 2.81356   3
   5   1   0 76.0430 2.89274   3
  -5   1   0 75.6570 2.76407   3
  -6  -1   0 46.3247 1.82442   3
   6  -1   0 45.5198 1.91850   3
  -6  -1   0 44.8950 1.88895   3
   6  -1   0 44.5277 1.90165   3
   6   1   0 43.8559 1.93640   3
  -6   1   0 45.2002 1.85132   3
   6   1   0 44.7101 1.92101   3
  -6   1   0 46.4579 1.78474   3
  -7  -1   0 3.72672 0.64817   3
  -7  -1   0 4.12222 0.51099   3
   7   1   0 4.90104 0.66490   3
  -7   1   0 3.60610 0.58397   3
  -7   1   0 4.93731 0.55267   3
   8  -1   0 11.3467 1.08526   3
  -8  -1   0 9.33296 0.89531   3
   8   1   0 10.5102 1.07533   3
  -8   1   0 9.99207 0.84465   3
  -9  -1   0 14.1642 1.33693   3
   9  -1   0 14.8023 1.37204   3
  -9   1   0 15.6233 1.32680   3
   9   1   0 13.9378 1.39902   3
   0  -2   0 683.519 23.9637   1
   0   2   0 669.652 24.0218   1
   1  -2   0 3.05495 0.34146   2
  -1  -2   0 3.15648 0.22151   3
  -1  -2   0 3.18435 0.20683   3
  -1  -2   0 3.01775 0.28615   2
   1   2   0 2.91624 0.21940   3
   1   2   0 3.14674 0.21610   3
  -1   2   0 2.83473 0.34240   2
   1   2   0 3.16076 0.29630   2
   2  -2   0 711.446 27.1249   1
  -2  -2   0 702.220 29.2250   1
  -2   2   0 687.068 27.0778   1
   2   2   0 626.737 28.7230   1
  -3  -2   0 -0.0919 0.10726   3
   3  -2   0 0.01453 0.11732   3
   3  -2   0 0.08114 0.20691   2
  -3  -2   0 0.33657 0.17092   3
   3  -2   0 0.00705 0.10139   3
   3   2   0 -0.1599 0.15062   3
   3   2   0 -0.1848 0.12194   3
  -3   2   0 0.20464 0.10973   3
  -3   2   0 0.09751 0.11520   3
   4  -2   0 70.2836 2.52010   3
   4  -2   0 67.8020 2.53374   3
  -4  -2   0 70.4705 2.54052   3
  -4  -2   0 69.3393 2.56723   3
   4   2   0 67.7683 2.58092   3
  -4   2   0 69.6060 2.46042   3
   4   2   0 68.4330 2.58407   3
  -4   2   0 68.3856 2.48481   3
  -5  -2   0 190.209 6.68874   3
  -5  -2   0 194.761 6.73883   3
   5  -2   0 190.523 6.69505   3
   5  -2   0 193.029 6.71880   3
   5   2   0 187.220 6.76589   3
   5   2   0 191.998 6.76516   3
  -5   2   0 192.191 6.60440   3
   6  -2   0 104.297 3.88847   3
   6  -2   0 102.863 3.86908   3
  -6  -2   0 102.739 3.88635   3
  -6  -2   0 106.422 3.82589   3
  -6   2   0 105.528 3.73533   3
  -6   2   0 105.402 3.78452   3
   6   2   0 103.279 3.92861   3
   7  -2   0 34.1838 1.65799   3
  -7  -2   0 33.7221 1.63817   3
   7   2   0 34.5031 1.67762   3
  -7   2   0 34.7869 1.44941   3
  -7   2   0 34.5055 1.55889   3
  -8  -2   0 2.30590 0.54850   3
   8  -2   0 2.73396 0.71394   3
  -8   2   0 2.88984 0.50520   3
   8   2   0 3.43587 0.70364   3
   9  -2   0 1.91812 0.79849   3
  -9  -2   0 2.08941 0.75590   3
   9   2   0 1.10748 0.85826   3
   0  -3   0 0.01728 0.05472   3
   0  -3   0 0.02221 0.17118   2
   0  -3   0 0.00159 0.07318   3
   0   3   0 0.38738 0.21407   2
   1  -3   0 73.7222 2.80842   2
  -1  -3   0 70.8898 2.51999   3
  -1  -3   0 74.7178 2.52087   3
  -1  -3   0 76.3266 2.73439   2
   1   3   0 73.6889 2.52581   3
   1   3   0 65.1174 2.70564   2
   1   3   0 71.5929 2.51596   3
   2  -3   0 238.354 8.12662   3
  -2  -3   0 241.150 8.20245   3
  -2  -3   0 243.806 8.20693   3
   2  -3   0 241.400 8.11568   3
   2   3   0 250.713 8.33222   2
   2   3   0 245.550 8.21369   3
  -2   3   0 231.238 8.46275   2
   2   3   0 229.967 8.20371   3
   3  -3   0 664.129 21.6721   3
  -3  -3   0 637.821 21.7392   3
   3   3   0 624.727 21.7614   3
  -3   3   0 642.553 21.6336   3
  -3   3   0 644.185 21.6231   3
   4  -3   0 31.7070 1.24504   3
  -4  -3   0 32.0206 1.31727   3
   4  -3   0 32.2081 1.49700   2
  -4  -3   0 29.9996 1.27506   3
   4  -3   0 30.9500 1.24855   3
   4   3   0 29.0172 1.30296   3
  -4   3   0 30.7116 1.18229   3
   4   3   0 31.8587 1.32718   3
  -4   3   0 30.7864 1.16133   3
  -5  -3   0 27.0579 1.26973   3
   5  -3   0 28.5990 1.20734   3
   5  -3   0 27.6921 1.20896   3
  -5  -3   0 27.7181 1.22733   3
  -5   3   0 28.1706 1.13659   3
  -5   3   0 27.6543 1.09540   3
   5   3   0 26.8257 1.28129   3
  -6  -3   0 81.2826 3.04011   3
   6  -3   0 79.1101 3.05036   3
  -6  -3   0 77.8650 3.10915   3
   6  -3   0 79.5609 3.06882   3
   6   3   0 78.3644 3.13350   3
  -6   3   0 81.8934 2.97244   3
  -6   3   0 84.0354 2.90817   3
   7  -3   0 3.80510 0.56210   3
  -7  -3   0 3.56708 0.49711   3
  -7   3   0 3.71148 0.51136   3
   7   3   0 5.20682 0.69776   3
  -7   3   0 3.18632 0.50840   3
  -8  -3   0 1.13411 0.51412   3
   8  -3   0 0.06826 0.57286   3
   8   3   0 -0.3077 0.56127   3
  -8   3   0 -0.4390 0.43583   3
  -9  -3   0 0.68122 0.73455   3
   9  -3   0 2.65409 0.85981   3
   9   3   0 1.44123 0.93271   3
   0  -4   0 288.222 9.85960   3
   0  -4   0 296.870 10.2687   2
  -1  -4   0 172.391 5.91481   2
   1  -4   0 163.188 5.97999   2
  -1  -4   0 166.163 5.59212   3
   1   4   0 150.609 5.87667   2
   1   4   0 167.975 5.59823   3
   1   4   0 161.012 5.59828   3
   2  -4   0 11.2959 0.44322   3
   2  -4   0 11.8295 0.83188   2
  -2  -4   0 12.2599 0.56039   3
   2  -4   0 11.6085 0.45342   3
  -2  -4   0 12.1770 0.56329   3
   2   4   0 10.7313 0.54480   3
   2   4   0 11.9204 0.56846   3
   2   4   0 11.5869 0.71906   2
  -2   4   0 11.5583 0.82330   2
  -3  -4   0 104.619 3.62873   3
   3  -4   0 102.473 3.50793   3
   3  -4   0 93.0260 3.92389   2
   3  -4   0 101.579 3.52560   3
  -3  -4   0 100.722 3.60901   3
   3   4   0 100.583 3.71542   2
  -3   4   0 106.858 3.97552   2
   3   4   0 99.4964 3.62804   3
   3   4   0 103.059 3.63661   3
  -4  -4   0 9.64202 0.57862   3
   4  -4   0 9.18807 0.79204   2
   4  -4   0 9.48666 0.51239   3
   4  -4   0 9.97760 0.60189   3
  -4  -4   0 10.4581 0.62287   3
   4   4   0 8.35600 0.60204   3
   4   4   0 9.86869 0.60824   3
  -5  -4   0 41.3261 1.76359   3
   5  -4   0 41.1269 1.67944   3
  -5  -4   0 43.2828 1.73434   3
   5  -4   0 43.1371 1.67196   3
  -5   4   0 42.3719 1.55986   3
   5   4   0 41.7976 1.79070   3
   5   4   0 42.3053 1.77912   3
  -5   4   0 41.1487 1.53487   3
   6  -4   0 38.1509 1.58988   3
   6  -4   0 36.2236 1.57365   3
  -6  -4   0 35.2229 1.57685   3
  -6   4   0 36.6015 1.41433   3
  -6   4   0 36.2027 1.37858   3
   6   4   0 34.1893 1.65133   3
   7  -4   0 0.18001 0.36320   3
  -7  -4   0 -0.0762 0.35955   3
  -7   4   0 -0.2062 0.33787   3
  -7   4   0 0.04256 0.25686   3
   7   4   0 0.74014 0.46145   3
  -8  -4   0 3.93993 0.65434   3
   8  -4   0 5.42906 0.76771   3
   8   4   0 4.45503 0.74016   3
  -9  -4   0 1.17922 0.77056   3
   9  -4   0 1.34524 0.84018   3
   9   4   0 2.29497 1.14268   3
   0  -5   0 0.53635 0.24583   2
   0   5   0 0.66239 0.26771   2
   1  -5   0 297.004 11.1375   2
  -1  -5   0 312.928 10.6766   3
  -1  -5   0 302.329 11.0651   2
  -1  -5   0 317.033 10.6870   3
  -1   5   0 350.512 11.2353   2
   1   5   0 310.562 11.0908   2
   1   5   0 314.124 10.6775   3
  -2  -5   0 388.652 12.6161   3
   2  -5   0 401.524 13.1418   2
  -2  -5   0 376.861 12.6111   3
   2   5   0 385.338 12.6138   3
   2   5   0 327.821 12.8702   2
   2   5   0 395.259 12.6254   3
  -2   5   0 319.707 13.0054   2
   3  -5   0 178.063 5.81717   3
  -3  -5   0 171.815 5.94773   3
  -3  -5   0 176.948 5.96745   3
   3  -5   0 157.330 6.36028   2
  -3   5   0 181.108 6.43101   2
   3   5   0 177.800 5.98039   3
   3   5   0 145.974 6.42429   2
   3   5   0 175.591 5.96970   3
  -4  -5   0 2.70494 0.39105   3
   4  -5   0 3.12777 0.29682   3
   4  -5   0 2.82835 0.28926   3
   4  -5   0 2.65133 0.69569   2
  -4  -5   0 2.02617 0.31916   3
   4   5   0 2.52534 0.36625   3
   4   5   0 3.44178 0.43994   3
   5  -5   0 5.61719 0.45145   3
  -5  -5   0 5.23477 0.51250   3
  -5  -5   0 4.95119 0.58958   3
   5  -5   0 6.43824 0.48690   3
   5   5   0 4.27557 0.53769   3
   5   5   0 4.31447 0.51741   3
   6  -5   0 0.73435 0.30381   3
   6  -5   0 0.59994 0.33522   3
  -6  -5   0 0.70929 0.35078   3
   6   5   0 0.75702 0.38010   3
  -7  -5   0 5.28069 0.70730   3
   7  -5   0 5.72655 0.71950   3
   7   5   0 5.62257 0.76536   3
  -8  -5   0 64.1182 2.68864   3
   8  -5   0 64.7356 2.78816   3
   8   5   0 64.1765 2.88749   3
   0  -6   0 534.388 18.0034   3
  -1  -6   0 306.562 9.73123   3
  -1  -6   0 306.814 9.74467   3
   1   6   0 297.704 9.71923   3
   1   6   0 232.894 10.1244   2
   2  -6   0 9.60504 1.04260   2
  -2  -6   0 9.40246 0.50733   3
  -2  -6   0 8.65367 0.49097   3
  -2   6   0 8.48486 0.83577   2
   2   6   0 8.68834 0.51399   3
   2   6   0 9.20166 0.74563   2
   2   6   0 8.67719 0.48325   3
  -3  -6   0 8.09251 0.54141   3
   3  -6   0 9.14188 0.89779   2
   3  -6   0 8.65096 0.38401   3
   3  -6   0 9.23919 0.41037   3
  -3  -6   0 7.22972 0.50304   3
   3   6   0 8.58708 0.56548   3
   3   6   0 8.40932 0.72474   2
  -3   6   0 7.90483 0.82977   2
   3   6   0 9.13432 0.53761   3
   4  -6   0 14.1269 0.64342   3
   4  -6   0 14.9476 1.17481   2
  -4  -6   0 14.0793 0.76658   3
  -4  -6   0 13.5003 0.80519   3
   4  -6   0 14.1862 0.65901   3
   4   6   0 14.2608 0.79970   3
   4   6   0 14.4564 0.84171   3
   4   6   0 14.2421 0.91293   2
   5  -6   0 7.87095 0.53583   3
   5  -6   0 8.36189 0.53449   3
  -5  -6   0 7.36232 0.70195   3
  -5  -6   0 7.22991 0.60206   3
   5   6   0 6.90743 0.70885   3
   5   6   0 8.09100 0.65929   3
   6  -6   0 61.3855 2.26204   3
   6  -6   0 57.5822 2.23282   3
  -6  -6   0 49.3942 2.52754   3
  -7  -6   0 0.65465 0.45395   3
   7  -6   0 0.27147 0.43286   3
   7   6   0 0.16789 0.51088   3
  -8  -6   0 15.6399 1.15562   3
   8  -6   0 15.0564 1.23699   3
   8   6   0 14.3541 1.35373   3
   0  -7   0 0.80427 0.33886   2
   0   7   0 1.12909 0.37826   2
  -1  -7   0 173.239 6.18906   3
   1  -7   0 200.627 6.94849   2
  -1  -7   0 172.219 6.17713   3
  -1   7   0 187.016 6.91025   2
   1   7   0 172.393 6.15568   3
   1   7   0 175.042 6.76510   2
  -2  -7   0 1.59395 0.24706   3
  -2  -7   0 2.12754 0.26883   3
   2  -7   0 2.43534 0.62365   2
   2   7   0 1.86016 0.28445   3
   2   7   0 1.78825 0.25685   3
   2   7   0 1.49438 0.45234   2
  -2   7   0 2.14563 0.55611   2
  -3  -7   0 3.06150 0.35809   3
   3  -7   0 3.68942 0.72581   2
  -3  -7   0 3.19583 0.39520   3
   3  -7   0 3.19308 0.22134   3
   3   7   0 3.28384 0.57230   2
   3   7   0 2.96088 0.35509   3
  -3   7   0 3.40068 0.66237   2
   3   7   0 2.76977 0.37359   3
   4  -7   0 16.5903 0.75862   3
   4  -7   0 17.6468 0.74904   3
   4  -7   0 19.9543 1.42761   2
  -4  -7   0 17.8461 0.95167   3
   4   7   0 17.3385 1.11418   2
   4   7   0 18.1359 0.94354   3
   4   7   0 17.1635 0.96853   3
   5  -7   0 0.15022 0.21705   3
  -5  -7   0 0.57651 0.44807   3
  -5  -7   0 0.52171 0.29103   3
   5  -7   0 -0.0448 0.24698   3
   5   7   0 0.18047 0.30811   3
   5   7   0 0.71799 0.38691   3
  -6  -7   0 3.76920 0.55382   3
   6  -7   0 5.35423 0.60458   3
   6  -7   0 4.06908 0.52582   3
   6   7   0 5.04231 0.67983   3
   7  -7   0 10.2042 0.87786   3
  -7  -7   0 11.8847 0.97810   3
   7   7   0 11.5202 1.08139   3
   8  -7   0 15.2452 1.23820   3
  -8  -7   0 11.0097 1.14199   3
   8   7   0 14.9257 1.36200   3
   0  -8   0 6.19456 0.37289   3
   0  -8   0 6.57951 0.34285   3
   0   8   0 6.77952 0.79083   2
  -1  -8   0 2.00915 0.25666   3
   1  -8   0 1.99325 0.57828   2
  -1  -8   0 2.13301 0.25618   3
  -1  -8   0 1.49481 0.48232   2
   1   8   0 2.16095 0.24053   3
  -1   8   0 1.81383 0.53341   2
   1   8   0 2.31055 0.57793   2
  -2  -8   0 21.6702 0.92182   3
  -2  -8   0 21.0613 0.91872   3
   2  -8   0 20.3319 1.47008   2
  -2   8   0 17.4818 1.39205   2
   2   8   0 19.9488 1.34170   2
   2   8   0 21.3187 0.91920   3
  -3  -8   0 133.564 4.90720   3
   3  -8   0 141.053 5.67558   2
  -3  -8   0 136.414 4.90581   3
   3   8   0 137.609 5.39518   2
   3   8   0 134.971 4.91960   3
   3   8   0 136.179 4.90682   3
  -3   8   0 145.647 5.68365   2
  -4  -8   0 24.9736 1.23411   3
  -4  -8   0 25.6592 1.19108   3
   4  -8   0 24.4873 1.00978   3
   4  -8   0 28.0073 1.82049   2
   4  -8   0 24.7730 0.99197   3
   4   8   0 25.9586 1.25050   3
   4   8   0 24.9395 1.48375   2
   4   8   0 24.4497 1.20851   3
  -4   8   0 24.7364 1.74752   2
   5  -8   0 56.6941 2.17959   3
  -5  -8   0 59.9215 2.36995   3
   5  -8   0 59.2506 2.20813   3
   5   8   0 56.4964 2.45477   3
   5   8   0 60.2764 2.42160   3
   6  -8   0 12.4227 0.82874   3
  -6  -8   0 13.3060 0.90882   3
   6  -8   0 12.9736 0.80968   3
   6   8   0 13.8165 1.00157   3
   7  -8   0 2.75234 0.57245   3
  -7  -8   0 4.13691 0.71088   3
   7   8   0 2.29276 0.65499   3
  -8  -8   0 14.0971 1.20835   3
   8  -8   0 14.2641 1.23015   3
   8   8   0 11.5696 1.33250   3
   0  -9   0 0.15158 0.14484   3
   0  -9   0 0.08092 0.13164   3
   0  -9   0 0.14860 0.39895   2
   0   9   0 -0.1071 0.33783   2
  -1  -9   0 15.5103 1.25044   2
  -1  -9   0 14.9944 0.71701   3
  -1  -9   0 15.6938 0.71491   3
   1  -9   0 15.6127 1.31520   2
   1   9   0 12.7850 1.18109   2
  -1   9   0 18.7955 1.39837   2
   2  -9   0 44.8576 2.41670   2
  -2  -9   0 42.2937 1.64690   3
  -2  -9   0 40.8840 1.64083   3
   2   9   0 40.7785 2.23159   2
   2   9   0 40.6553 1.61864   3
  -2   9   0 40.3097 2.34635   2
  -3  -9   0 119.477 4.35669   3
  -3  -9   0 119.106 4.36384   3
   3  -9   0 128.012 5.23230   2
   3   9   0 122.005 4.35832   3
   3   9   0 117.339 4.91587   2
   3   9   0 120.340 4.37018   3
  -3   9   0 120.501 5.17294   2
  -4  -9   0 521.618 17.6120   3
   4  -9   0 523.114 17.3449   3
   4  -9   0 511.297 17.3713   3
  -4  -9   0 509.790 17.5814   3
   4  -9   0 498.024 18.4254   2
   4   9   0 518.589 17.6228   3
  -4   9   0 489.930 18.4007   2
   4   9   0 526.992 17.6176   3
   4   9   0 523.058 18.0871   2
   5  -9   0 9.39660 0.59617   3
   5  -9   0 8.55164 0.56191   3
  -5  -9   0 8.95455 0.72022   3
   5   9   0 9.07700 0.77897   3
   5   9   0 7.79597 0.92321   3
   6  -9   0 13.9934 0.85399   3
  -6  -9   0 14.3087 0.98574   3
   6  -9   0 12.7330 0.86156   3
   6   9   0 14.6725 1.06557   3
  -7  -9   0 10.5189 1.00232   3
   7  -9   0 11.0033 0.94022   3
   7   9   0 12.6826 1.18034   3
  -8  -9   0 0.83299 0.77092   3
   8  -9   0 0.40763 0.72613   3
   0 -10   0 109.918 4.51036   2
   0 -10   0 99.3931 3.49867   3
   0 -10   0 96.7075 3.51378   3
   0  10   0 95.0133 4.42112   2
  -1 -10   0 4.92209 0.38829   3
  -1 -10   0 3.98425 0.37925   3
  -1 -10   0 4.36259 0.83677   2
   1 -10   0 4.60548 0.88637   2
   1  10   0 3.57687 0.76773   2
  -1  10   0 5.17014 0.89161   2
  -2 -10   0 75.6836 2.81153   3
  -2 -10   0 73.8899 2.80672   3
   2 -10   0 84.9151 3.79161   2
   2  10   0 75.4283 2.76872   3
   2  10   0 66.8441 3.45479   2
  -2  10   0 78.8581 3.71985   2
  -3 -10   0 15.7008 0.87788   3
  -3 -10   0 15.1050 0.84067   3
   3  10   0 16.1936 1.31089   2
  -3  10   0 14.8470 1.46605   2
   3  10   0 14.5065 0.87715   3
   4 -10   0 12.3554 0.56240   3
  -4 -10   0 12.7635 0.79744   3
  -4 -10   0 11.4220 0.94335   3
   4 -10   0 10.6057 1.38774   2
  -4  10   0 12.5884 1.43607   2
   4  10   0 13.1450 0.91995   3
   4  10   0 12.7537 1.20471   2
  -5 -10   0 0.08258 0.34743   3
   5 -10   0 0.11439 0.30506   3
   5 -10   0 0.29982 0.24582   3
   5  10   0 -0.2068 0.36907   3
   6 -10   0 5.36962 0.63216   3
  -6 -10   0 4.72903 0.71843   3
   6 -10   0 5.20419 0.59261   3
  -7 -10   0 9.75243 1.03822   3
   7 -10   0 11.5181 0.96145   3
   0 -11   0 0.83911 0.62198   2
   0 -11   0 0.80426 0.20672   3
   0 -11   0 0.63561 0.19701   3
   0  11   0 0.69343 0.49830   2
  -1 -11   0 80.9796 2.84426   3
  -1 -11   0 78.2338 3.69978   2
  -1 -11   0 80.7097 2.83392   3
  -1  11   0 69.4747 3.72632   2
   2 -11   0 398.490 15.8366   2
  -2 -11   0 441.266 14.8326   3
  -2 -11   0 437.297 14.8359   3
   2  11   0 468.116 15.8877   2
  -2  11   0 412.508 15.8845   2
   2  11   0 444.403 14.7471   3
  -3 -11   0 12.6633 0.83242   3
  -3 -11   0 13.5610 0.79463   3
   3 -11   0 10.5632 1.42029   2
   3  11   0 13.6065 0.84061   3
   3  11   0 12.9578 1.27377   2
  -3  11   0 12.1839 1.44253   2
  -4 -11   0 5.73073 0.60991   3
   4  11   0 5.85674 0.79759   3
  -4  11   0 5.96793 1.22590   2
   4  11   0 5.99183 1.02547   2
  -5 -11   0 -0.9159 0.37074   3
   5 -11   0 0.16570 0.31796   3
   5 -11   0 0.50653 0.27124   3
   6 -11   0 34.1896 1.50326   3
  -6 -11   0 32.4817 1.69764   3
  -7 -11   0 71.4071 3.01982   3
   0 -12   0 20.7303 0.91075   3
   0 -12   0 19.2466 1.70616   2
   0 -12   0 21.5093 0.89910   3
   0  12   0 20.3404 1.75345   2
  -1 -12   0 62.6914 2.31412   3
   1 -12   0 59.9580 3.29811   2
  -1 -12   0 61.9986 2.30643   3
  -1  12   0 63.2899 3.36566   2
   1  12   0 58.1145 3.23068   2
  -2 -12   0 22.7328 1.05395   3
  -2 -12   0 22.1384 1.07018   3
   2  12   0 23.0699 1.77586   2
  -2  12   0 18.5337 1.75267   2
  -3 -12   0 15.8675 0.89348   3
  -3 -12   0 12.4617 0.92967   3
   3  12   0 17.8929 1.54038   2
   3  12   0 15.7563 0.93908   3
  -3  12   0 13.6439 1.58713   2
  -4 -12   0 5.53151 0.62703   3
   4  12   0 4.84340 0.66019   3
   4  12   0 3.78282 0.95642   2
   5 -12   0 8.69611 0.77233   3
  -5 -12   0 9.28419 0.83235   3
  -6 -12   0 2.37541 0.58125   3
  -7 -12   0 28.4495 1.73202   3
   0 -13   0 0.60277 0.23544   3
   0 -13   0 0.42263 0.24076   3
   0  13   0 0.63434 0.61286   2
  -1 -13   0 51.8277 2.08951   3
  -1 -13   0 55.3235 2.10667   3
   1 -13   0 54.4627 1.99680   3
   1  13   0 49.1956 3.02329   2
  -1  13   0 61.0761 3.29355   2
  -2 -13   0 -0.1083 0.34165   3
  -2 -13   0 0.21855 0.27665   3
   2  13   0 0.34640 0.62234   2
  -2  13   0 0.25063 0.75958   2
  -3 -13   0 1.01144 0.36706   3
   3  13   0 1.68997 0.76744   2
  -3  13   0 1.33739 0.91579   2
   3  13   0 1.58783 0.51303   3
  -4 -13   0 3.13937 0.53109   3
   4  13   0 3.98446 1.04720   2
   4  13   0 4.18873 0.68956   3
  -5 -13   0 50.1263 2.23491   3
  -6 -13   0 0.62742 0.63790   3
   0 -14   0 0.93495 0.26663   3
   0 -14   0 0.22394 0.28998   3
   0  14   0 0.52897 0.68233   2
   1 -14   0 25.8126 1.08411   3
  -1 -14   0 27.0754 1.22214   3
   1 -14   0 25.9160 1.08811   3
  -1 -14   0 27.4299 1.20719   3
   1  14   0 28.4565 2.17618   2
  -1  14   0 23.7223 2.23711   2
  -2 -14   0 39.1074 1.61504   3
  -2 -14   0 35.9482 1.62698   3
   2  14   0 35.6761 2.52237   2
  -2  14   0 35.2262 2.63107   2
  -3 -14   0 5.52874 0.67560   3
  -3  14   0 5.87272 1.37789   2
   3  14   0 5.01289 1.14049   2
  -4 -14   0 104.447 3.98859   3
  -5 -14   0 24.3962 1.45720   3
  -6 -14   0 -0.1248 0.70021   3
   0 -15   0 0.21243 0.34620   3
   0 -15   0 0.50354 0.30747   3
   0  15   0 0.37437 0.71842   2
   1 -15   0 20.6039 0.94009   3
   1 -15   0 21.0587 0.96596   3
  -1 -15   0 22.0653 1.06860   3
  -1 -15   0 21.6972 1.11236   3
   1  15   0 20.9471 2.00634   2
  -1  15   0 18.3930 1.98987   2
  -2 -15   0 17.2456 1.00618   3
   2  15   0 16.1375 1.87547   2
  -2  15   0 18.7470 2.02756   2
  -3 -15   0 4.35262 0.70485   3
  -3  15   0 2.64315 1.08896   2
   3  15   0 5.18409 1.79487   2
  -4 -15   0 51.7709 2.27691   3
  -5 -15   0 56.0197 2.50062   3
   0 -16   0 6.26472 0.73461   3
   0 -16   0 7.86277 0.62456   3
   0  16   0 6.75789 1.48355   2
  -1 -16   0 18.0534 1.10920   3
  -1 -16   0 19.2520 1.03595   3
   1 -16   0 18.4657 0.89655   3
   1  16   0 18.3949 2.07685   2
  -1  16   0 18.0554 2.07427   2
  -2 -16   0 6.94147 0.79286   3
   2  16   0 6.65663 1.55712   2
  -2  16   0 7.86628 1.70371   2
  -3 -16   0 44.3213 2.02941   3
   3  16   0 46.0193 3.17280   2
  -4 -16   0 43.5865 2.07038   3
  -5 -16   0 6.42987 0.86316   3
   0 -17   0 0.73725 0.42954   3
   0  17   0 0.97547 1.21868   2
  -1 -17   0 18.3431 1.10786   3
   1 -17   0 19.4004 0.95409   3
   1  17   0 15.9569 2.16136   2
  -1  17   0 20.5997 2.30631   2
   2  17   0 -0.9812 1.00964   2
  -2  17   0 0.85737 1.09464   2
  -3 -17   0 4.85941 0.79654   3
  -4 -17   0 13.4519 1.22314   3
   0 -18   0 19.4538 1.10524   3
   0  18   0 16.9050 2.30490   2
  -1 -18   0 6.92548 0.77973   3
  -1  18   0 9.73427 2.00940   2
   1  18   0 8.46902 2.02170   2
  -2 -18   0 1.64327 0.62588   3
  -3 -18   0 0.11083 0.68349   3
  -2 -19   0 12.8119 1.26233   3
   9   0  -1 0.14315 0.70554   3
  -9   0   1 0.69013 0.72926   3
   8   0  -1 -0.1688 0.48443   3
  -7   0   1 0.09540 0.30621   3
  -7   0   1 1.44791 0.54025   3
   7   0  -1 0.42355 0.39397   3
   6   0  -1 0.45864 0.40385   3
  -6   0   1 -0.2564 0.35532   3
  -6   0   1 -0.3062 0.23509   3
   6   0  -1 0.31994 0.27236   3
   5   0  -1 0.17940 0.20150   3
   5   0  -1 -0.0527 0.23377   3
  -5   0   1 0.20814 0.19566   3
  -5   0   1 0.02842 0.25726   3
   4   0  -1 0.17261 0.20303   3
  -4   0   1 -0.2599 0.13579   3
   4   0  -1 0.19197 0.15640   3
  -3   0   1 0.14819 0.13909   3
   3   0  -1 -0.0766 0.11962   3
   3   0  -1 -0.1476 0.12705   3
  -3   0   1 0.16649 0.11982   3
   2   0  -1 0.00487 0.09197   3
  -2   0   1 0.34745 0.10951   3
   2   0  -1 -0.1169 0.10077   3
  -2   0   1 -0.0024 0.09285   3
   1   0  -1 0.12439 0.09690   3
  -1   0   1 -0.0970 0.08238   3
   1   0  -1 0.02628 0.09851   3
  -1   0   1 -0.0904 0.10124   3
   0   0   1 0.00258 0.04880   3
   0   0  -1 0.02380 0.04904   3
  -1   0  -1 0.08230 0.09648   3
   1   0   1 0.07047 0.08507   3
   2   0   1 0.05747 0.09493   3
   2   0   1 0.02353 0.09603   3
  -2   0  -1 -0.0050 0.07840   3
  -2   0  -1 0.00673 0.10230   3
   3   0   1 -0.0269 0.11900   3
  -3   0  -1 0.14919 0.15207   3
   3   0   1 0.02500 0.12802   3
  -3   0  -1 -0.1025 0.10140   3
  -4   0  -1 -0.0932 0.14584   3
  -4   0  -1 -0.1369 0.17984   3
   4   0   1 0.06115 0.16754   3
   4   0   1 -0.0643 0.17820   3
  -5   0  -1 0.20728 0.22316   3
  -5   0  -1 -0.0907 0.25893   3
   5   0   1 0.28861 0.22420   3
   5   0   1 -0.1990 0.22980   3
   6   0   1 0.38234 0.29345   3
  -6   0  -1 0.49352 0.37532   3
  -6   0  -1 -0.0858 0.25447   3
   6   0   1 0.25485 0.37188   3
  -7   0  -1 0.70400 0.52873   3
  -7   0  -1 0.29588 0.34710   3
   7   0   1 0.08677 0.35202   3
   8   0   1 0.30429 0.59548   3
  -8   0  -1 0.45978 0.50698   3
  -9   0  -1 -0.2328 0.83513   3
  -9  -1   1 5.92462 0.90798   3
   9  -1  -1 5.09749 0.87835   3
  -9   1   1 7.15236 0.99657   3
   9   1  -1 5.26308 0.88035   3
   8  -1  -1 0.26332 0.49069   3
  -8  -1   1 1.48878 0.45539   3
  -8   1   1 1.27103 0.47807   3
   8   1  -1 2.26480 0.62040   3
   7  -1  -1 18.4468 1.30298   3
  -7  -1   1 19.2276 1.01324   3
  -7  -1   1 17.7504 1.19104   3
   7   1  -1 19.5301 1.12745   3
  -7   1   1 18.8700 1.13372   3
  -7   1   1 19.9719 0.96463   3
   6  -1  -1 5.57453 0.63674   3
   6  -1  -1 7.39140 0.60483   3
  -6  -1   1 6.95121 0.67916   3
  -6  -1   1 7.04827 0.57637   3
  -6   1   1 6.72320 0.51569   3
   6   1  -1 7.47911 0.73514   3
  -6   1   1 6.09190 0.63624   3
   6   1  -1 6.03290 0.58450   3
  -5  -1   1 97.8418 3.53968   3
   5  -1  -1 96.0928 3.54544   3
  -5  -1   1 97.3183 3.49728   3
   5  -1  -1 95.9156 3.53457   3
  -5   1   1 100.983 3.50003   3
  -5   1   1 97.3909 3.44427   3
   5   1  -1 92.3142 3.56794   3
   5   1  -1 94.5613 3.54986   3
   4  -1  -1 186.581 6.70569   2
   4  -1  -1 187.512 6.56146   3
  -4  -1   1 186.218 6.54015   3
   4  -1  -1 183.400 6.55133   3
  -4  -1   1 193.605 6.57277   3
   4   1  -1 194.529 6.60801   3
  -4   1   1 187.002 6.49361   3
   4   1  -1 187.431 6.58254   3
  -4   1   1 193.573 6.52976   3
   3  -1  -1 275.791 9.49536   3
  -3  -1   1 281.356 9.51561   3
  -3  -1   1 280.569 9.50514   3
   3  -1  -1 273.525 9.49597   3
  -3   1   1 283.059 9.47923   3
  -3   1   1 274.207 9.45715   3
   3   1  -1 280.154 9.53756   3
  -2  -1   1 35.9100 1.33138   3
   2  -1  -1 36.3143 1.31311   3
  -2  -1   1 34.4897 1.32787   3
   2   1  -1 37.3102 1.35561   3
  -2   1   1 36.0706 1.29174   3
  -2   1   1 34.4910 1.29270   3
   2   1  -1 35.8990 1.33403   3
  -1  -1   1 180.726 6.19235   3
   1  -1  -1 184.362 6.16431   3
  -1  -1   1 183.316 6.17878   3
   1  -1  -1 182.609 6.15479   3
  -1   1   1 177.769 6.14531   3
   1   1  -1 180.857 6.17844   3
   1   1  -1 185.557 6.19958   3
  -1   1   1 178.614 6.15022   3
   0  -1  -1 127.807 4.41427   3
   0  -1   1 130.644 4.42744   3
   0   1  -1 133.040 4.42888   3
   0   1   1 129.541 4.41118   3
  -1  -1  -1 1.34011 0.16560   3
   1  -1   1 1.42181 0.15605   3
   1   1   1 1.56016 0.16285   3
  -1   1  -1 1.51726 0.16199   3
  -1   1  -1 1.24307 0.16950   3
  -2  -1  -1 425.631 14.4204   3
   2  -1   1 430.813 14.4173   3
   2   1   1 421.227 14.4381   3
  -2   1  -1 427.688 14.3923   3
  -2   1  -1 421.957 14.3734   3
   2   1   1 427.254 14.4025   3
  -3  -1  -1 185.846 6.46986   3
   3  -1   1 185.684 6.47876   3
   3  -1   1 186.685 6.43515   3
  -3   1  -1 190.787 6.44685   3
   3   1   1 187.456 6.53522   3
  -3   1  -1 187.330 6.42087   3
  -4  -1  -1 130.426 4.61693   3
  -4  -1  -1 129.434 4.64623   3
   4  -1   1 136.629 4.63491   3
   4  -1   1 128.594 4.66841   3
  -4   1  -1 131.999 4.58809   3
   4   1   1 128.890 4.69398   3
   4   1   1 133.434 4.65637   3
   5  -1   1 8.08181 0.58952   3
  -5  -1  -1 8.35767 0.61386   3
   5  -1   1 8.57362 0.61544   3
  -5  -1  -1 8.81223 0.56185   3
  -5   1  -1 8.10952 0.58123   3
   5   1   1 7.37375 0.59171   3
   5   1   1 8.89437 0.63602   3
  -5   1  -1 8.31358 0.54070   3
  -6  -1  -1 99.8487 3.64123   3
   6  -1   1 99.9692 3.76133   3
   6  -1   1 92.9012 3.68855   3
  -6  -1  -1 100.247 3.70362   3
   6   1   1 97.7778 3.77626   3
  -6   1  -1 100.921 3.65888   3
  -6   1  -1 101.070 3.60541   3
  -7  -1  -1 0.38099 0.34991   3
   7  -1   1 -0.1140 0.39725   3
  -7   1  -1 0.35703 0.34141   3
   7   1   1 0.56620 0.41520   3
  -7   1  -1 1.18667 0.48937   3
   8  -1   1 10.8146 1.18684   3
  -8  -1  -1 10.1599 0.96106   3
   8   1   1 12.4274 1.21883   3
  -9  -1  -1 22.5636 1.52360   3
  -9   1  -1 19.9312 1.64096   3
   9  -2  -1 4.23294 0.86664   3
  -9  -2   1 3.62617 0.83599   3
   9   2  -1 3.54297 0.87404   3
   8  -2  -1 0.84939 0.52135   3
  -8  -2   1 0.82365 0.48763   3
  -8   2   1 0.56051 0.44569   3
   8   2  -1 -0.2030 0.53447   3
   7  -2  -1 18.0609 1.09504   3
  -7  -2   1 20.1299 1.06469   3
  -7   2   1 21.1267 1.10990   3
   7   2  -1 19.4836 1.15526   3
  -7   2   1 20.4859 0.97249   3
   6  -2  -1 331.215 11.5785   3
  -6  -2   1 334.204 11.5198   3
  -6  -2   1 326.944 11.5719   3
   6  -2  -1 336.197 11.5760   3
   6   2  -1 342.989 11.8931   3
  -6   2   1 339.194 11.4671   3
   6   2  -1 328.773 11.6189   3
  -6   2   1 332.803 11.4074   3
   5  -2  -1 0.88377 0.28354   3
  -5  -2   1 0.83880 0.24340   3
   5  -2  -1 1.46140 0.42498   2
   5  -2  -1 1.00570 0.24624   3
  -5  -2   1 0.95321 0.30572   3
  -5   2   1 0.74150 0.26661   3
   5   2  -1 0.77775 0.33084   3
  -5   2   1 0.91797 0.21468   3
   5   2  -1 0.84495 0.25562   3
  -4  -2   1 48.0484 1.86436   3
  -4  -2   1 50.2174 1.89549   3
   4  -2  -1 47.8735 1.85173   3
   4  -2  -1 50.8143 2.11239   2
   4  -2  -1 46.6188 1.83467   3
   4   2  -1 49.0045 1.89784   3
  -4   2   1 48.2442 1.77210   3
  -4   2   1 48.8522 1.80399   3
   4   2  -1 48.9441 1.92309   3
   3  -2  -1 101.192 3.75299   2
   3  -2  -1 97.2034 3.46199   3
  -3  -2   1 98.4695 3.51221   3
  -3  -2   1 96.1120 3.50090   3
   3  -2  -1 100.953 3.46955   3
  -3   2   1 98.5597 3.42912   3
  -3   2   1 99.9107 3.41410   3
   3   2  -1 97.8307 3.51217   3
   3   2  -1 99.4147 3.54609   3
   2  -2  -1 10.3736 0.44346   3
  -2  -2   1 10.5551 0.49211   3
  -2  -2   1 9.65753 0.48708   3
   2  -2  -1 10.1601 0.44104   3
  -2   2   1 10.3263 0.42048   3
  -2   2   1 10.1858 0.40892   3
   2   2  -1 10.2143 0.48590   3
   2   2  -1 9.99815 0.51256   3
   1  -2  -1 5.05100 0.23955   3
  -1  -2   1 5.76600 0.29991   3
   1  -2  -1 5.60913 0.25441   3
  -1  -2   1 5.24581 0.32763   3
   1   2  -1 5.49267 0.30098   3
   1   2  -1 5.45358 0.32666   3
   0  -2   1 5.43136 0.27297   3
   0  -2  -1 5.59571 0.24722   3
   0   2   1 5.94009 0.24454   3
   0   2  -1 5.62308 0.27105   3
   1  -2   1 2.06805 0.16111   3
  -1  -2  -1 1.65530 0.20262   3
  -1   2  -1 1.68636 0.15722   3
  -1   2  -1 1.76472 0.16079   3
   1   2   1 1.84389 0.17833   3
  -2  -2  -1 54.2735 1.98334   3
  -2  -2  -1 57.5070 2.05240   2
   2  -2   1 56.3839 1.98915   3
   2  -2   1 56.1656 1.95775   3
  -2  -2  -1 55.8809 2.01570   3
   2   2   1 55.4757 2.03069   3
  -2   2  -1 48.8331 2.16346   2
   2   2   1 56.5249 1.99827   3
  -2   2  -1 56.8745 1.96067   3
   3  -2   1 222.138 7.69703   3
   3  -2   1 224.657 7.65498   3
  -3  -2  -1 222.364 7.68532   3
  -3   2  -1 227.962 7.65316   3
   3   2   1 220.310 7.74382   3
   3   2   1 219.898 7.71188   3
  -3   2  -1 231.648 7.64172   3
  -3   2  -1 222.504 7.88926   2
  -4  -2  -1 0.85656 0.24771   3
  -4  -2  -1 1.08125 0.23446   3
   4  -2   1 1.06656 0.22584   3
   4  -2   1 0.79096 0.20012   3
   4   2   1 0.82992 0.23042   3
  -4   2  -1 0.81401 0.32078   2
  -4   2  -1 1.11484 0.22980   3
   4   2   1 0.97002 0.22929   3
  -4   2  -1 0.67324 0.18582   3
   5  -2   1 400.969 13.9878   3
   5  -2   1 410.621 13.9344   3
  -5  -2  -1 405.338 13.9745   3
  -5  -2  -1 406.923 13.9300   3
   5   2   1 395.793 13.9838   3
  -5   2  -1 410.445 13.8623   3
   5   2   1 408.481 14.0449   3
  -5   2  -1 418.267 13.8975   3
   6  -2   1 15.0174 0.90800   3
  -6  -2  -1 14.3171 0.84013   3
  -6  -2  -1 14.1549 0.93817   3
   6  -2   1 14.6484 0.91142   3
   6   2   1 15.5064 0.96481   3
  -6   2  -1 15.2262 0.80121   3
  -6   2  -1 15.0767 0.85770   3
  -7  -2  -1 4.00191 0.52268   3
   7  -2   1 4.08286 0.61649   3
   7   2   1 3.71504 0.58499   3
  -7   2  -1 3.08220 0.57123   3
  -7   2  -1 3.47711 0.47557   3
   8  -2   1 2.69102 0.72610   3
  -8  -2  -1 0.94190 0.54390   3
  -8   2  -1 1.64072 0.50666   3
   8   2   1 2.04253 0.68010   3
  -9  -2  -1 1.41071 0.78436   3
   9  -3  -1 18.3912 1.53263   3
  -9  -3   1 19.6014 1.41258   3
   9   3  -1 19.2704 1.64644   3
   8  -3  -1 16.4466 1.14804   3
  -8  -3   1 14.0871 1.04174   3
   8   3  -1 14.6415 1.17901   3
  -8   3   1 13.6664 0.87746   3
   7  -3  -1 4.06248 0.58270   3
  -7  -3   1 3.52325 0.49290   3
   7   3  -1 5.11466 0.68547   3
  -7   3   1 3.50647 0.46250   3
  -7   3   1 4.36074 0.51175   3
   6  -3  -1 8.30618 0.61570   3
  -6  -3   1 7.65738 0.76988   3
   6  -3  -1 7.32516 0.81211   2
   6  -3  -1 6.70039 0.66082   3
  -6  -3   1 7.96981 0.63890   3
  -6   3   1 7.40972 0.67857   3
  -6   3   1 7.55603 0.47953   3
   6   3  -1 7.12611 0.63547   3
   5  -3  -1 0.19316 0.24153   3
  -5  -3   1 0.12766 0.27255   3
   5  -3  -1 0.34734 0.22290   3
   5  -3  -1 0.24697 0.37876   2
  -5  -3   1 0.34493 0.24994   3
   5   3  -1 0.36614 0.33191   3
  -5   3   1 0.18526 0.16399   3
   5   3  -1 0.20425 0.23153   3
  -5   3   1 0.13233 0.19800   3
  -4  -3   1 115.716 4.10441   3
  -4  -3   1 116.749 4.12649   3
   4  -3  -1 116.401 4.05331   3
   4  -3  -1 110.255 4.39927   2
  -4   3   1 114.452 3.97900   3
   4   3  -1 115.702 4.15984   3
   4   3  -1 113.094 4.12369   3
  -4   3   1 116.597 3.95810   3
   3  -3  -1 99.7488 3.38970   3
  -3  -3   1 94.1126 3.52680   3
   3  -3  -1 89.4566 3.73626   2
   3  -3  -1 98.0882 3.38343   3
   3   3  -1 96.2177 3.46019   3
  -3   3   1 96.5154 3.32502   3
   3   3  -1 103.370 3.54700   3
  -3   3   1 97.5767 3.31147   3
  -2  -3   1 4.87616 0.34731   3
  -2  -3   1 5.59616 0.34946   3
   2  -3  -1 5.72373 0.57706   2
   2  -3  -1 5.53140 0.26706   3
   2  -3  -1 5.07976 0.26844   3
   2   3  -1 5.54741 0.37200   3
   2   3  -1 5.14297 0.32708   3
  -1  -3   1 38.3692 1.55258   3
  -1  -3   1 45.3608 1.49611   3
   1  -3  -1 40.9886 1.77379   2
   1   3  -1 36.5144 1.58730   3
   1   3  -1 43.5136 1.51717   3
   0  -3  -1 1.46196 0.35720   2
   0  -3   1 1.35304 0.15107   3
   0  -3  -1 1.17686 0.12184   3
   0   3  -1 1.24677 0.13943   3
   0   3   1 1.34272 0.11570   3
  -1  -3  -1 89.6052 3.15256   3
  -1  -3  -1 90.4422 3.35683   2
  -1  -3  -1 86.8138 3.16353   3
   1  -3   1 87.0419 3.09643   3
  -1   3  -1 103.170 3.50608   2
   1   3   1 88.6099 3.12430   3
  -1   3  -1 87.9601 3.07826   3
  -1   3  -1 89.2591 3.08174   3
  -2  -3  -1 172.177 5.86199   3
  -2  -3  -1 174.035 5.83727   3
  -2  -3  -1 171.970 5.98002   2
   2  -3   1 170.701 5.78173   3
  -2   3  -1 170.750 5.76669   3
  -2   3  -1 171.000 5.76497   3
   2   3   1 176.216 5.84631   3
  -2   3  -1 149.938 6.32117   2
   3  -3   1 242.000 8.33709   3
   3  -3   1 243.895 8.29434   3
  -3  -3  -1 247.352 8.38591   3
  -3  -3  -1 239.156 8.34762   3
  -3   3  -1 237.253 8.64563   2
  -3   3  -1 245.336 8.27087   3
  -3   3  -1 249.331 8.27974   3
   3   3   1 243.164 8.36969   3
   3   3   1 242.095 8.40711   3
   4  -3   1 36.9855 1.42507   3
   4  -3   1 36.6880 1.46737   3
  -4  -3  -1 36.3055 1.46396   3
  -4  -3  -1 36.2523 1.50240   3
  -4   3  -1 34.4377 1.66704   2
   4   3   1 36.5503 1.50478   3
  -4   3  -1 36.8005 1.37657   3
  -4   3  -1 37.5885 1.39727   3
   5  -3   1 101.753 3.68909   3
  -5  -3  -1 101.882 3.70919   3
  -5  -3  -1 101.216 3.75952   3
   5  -3   1 99.8529 3.73812   3
   5   3   1 102.829 3.82216   3
  -5   3  -1 102.707 3.64565   3
  -5   3  -1 102.598 3.60659   3
   5   3   1 101.967 3.77958   3
   6  -3   1 33.6970 1.55865   3
  -6  -3  -1 36.1575 1.55510   3
   6  -3   1 35.8913 1.61514   3
  -6  -3  -1 35.3893 1.63681   3
  -6   3  -1 35.4872 1.43393   3
  -6   3  -1 36.0009 1.48765   3
   6   3   1 36.6239 1.67941   3
   7  -3   1 9.22865 1.02912   3
  -7  -3  -1 8.95046 0.77609   3
  -7   3  -1 10.6264 0.83513   3
  -7   3  -1 10.6940 0.72341   3
   7   3   1 10.5223 0.94122   3
   8  -3   1 21.3069 1.45525   3
  -8  -3  -1 18.0987 1.25464   3
   8   3   1 21.3027 1.43171   3
  -8   3  -1 18.8323 1.11300   3
   9  -4  -1 5.93930 0.95847   3
  -9  -4   1 4.34544 0.83117   3
   9   4  -1 3.14155 0.97940   3
   8  -4  -1 4.87757 0.71691   3
  -8  -4   1 4.20476 0.64439   3
   8   4  -1 4.31667 0.75291   3
   7  -4  -1 24.0883 1.25450   3
  -7  -4   1 23.8767 1.24151   3
   7   4  -1 24.0420 1.33221   3
   6  -4  -1 28.7471 1.34037   3
   6  -4  -1 30.6988 1.32833   3
  -6  -4   1 29.7010 1.45941   3
  -6  -4   1 29.3814 1.34817   3
   6  -4  -1 26.4577 1.79035   2
  -6   4   1 28.8532 1.15217   3
  -6   4   1 29.2106 1.11823   3
   6   4  -1 28.1264 1.40046   3
   5  -4  -1 5.10997 0.42413   3
  -5  -4   1 4.97706 0.56580   3
   5  -4  -1 5.47326 0.76342   2
   5  -4  -1 4.62406 0.47551   3
  -5  -4   1 5.32050 0.51105   3
   5   4  -1 5.82137 0.62576   3
  -5   4   1 5.21266 0.35300   3
   5   4  -1 5.05924 0.49821   3
   4  -4  -1 95.4609 3.32134   3
   4  -4  -1 97.7917 3.32503   3
  -4  -4   1 88.4463 3.39035   3
   4  -4  -1 93.5636 3.80119   2
  -4  -4   1 90.9866 3.41429   3
   4   4  -1 95.5797 3.45780   3
   4   4  -1 94.4187 3.52978   2
   4   4  -1 90.1120 3.41260   3
   3  -4  -1 2.59446 0.22755   3
  -3  -4   1 2.51816 0.33805   3
   3  -4  -1 2.96557 0.54024   2
   3  -4  -1 2.64989 0.24159   3
  -3  -4   1 3.12877 0.32198   3
   3   4  -1 2.23480 0.32342   3
   3   4  -1 2.53924 0.28194   3
  -2  -4   1 325.167 11.1192   3
  -2  -4   1 332.133 11.1093   3
   2  -4  -1 321.499 11.5105   2
   2   4  -1 325.398 11.1298   3
   1  -4  -1 4.39647 0.52083   2
  -1  -4   1 4.36541 0.30068   3
  -1  -4   1 4.29158 0.27803   3
   1   4  -1 4.10971 0.30056   3
   1   4  -1 4.25916 0.26275   3
   0  -4   1 6.32951 0.35225   3
   0  -4  -1 6.94179 0.29854   3
   0  -4   1 6.61989 0.32149   3
   0   4  -1 7.82138 0.61701   2
   0   4  -1 7.23401 0.30664   3
   1  -4   1 245.366 8.35009   3
  -1  -4  -1 241.282 8.38627   3
  -1  -4  -1 242.424 8.71572   2
  -1  -4  -1 243.780 8.41292   3
  -1   4  -1 265.501 8.86467   2
   1   4   1 243.576 8.38656   3
   2  -4   1 19.6300 0.73106   3
   2  -4   1 19.6438 0.76200   3
  -2  -4  -1 19.3053 0.99234   2
  -2  -4  -1 18.2378 0.78627   3
  -2  -4  -1 18.7989 0.81628   3
   2   4   1 18.3978 0.79876   3
  -2   4  -1 17.0791 1.08953   2
  -3  -4  -1 70.6016 2.69408   2
  -3  -4  -1 71.8236 2.62568   3
   3  -4   1 71.9026 2.51353   3
   3  -4   1 72.8964 2.55721   3
  -3  -4  -1 71.5363 2.59374   3
  -3   4  -1 71.4582 2.46898   3
   3   4   1 70.6529 2.61174   3
  -3   4  -1 70.0385 2.95206   2
   3   4   1 69.7788 2.64211   3
  -3   4  -1 69.9405 2.46902   3
   4  -4   1 2.73714 0.31103   3
   4  -4   1 3.16237 0.33019   3
  -4  -4  -1 3.62545 0.41396   3
  -4  -4  -1 3.15063 0.36674   3
  -4   4  -1 2.76994 0.27181   3
   4   4   1 3.01371 0.39236   3
  -4   4  -1 2.37132 0.25314   3
  -4   4  -1 2.56818 0.53255   2
   4   4   1 3.98111 0.47869   3
   5  -4   1 13.1531 0.75230   3
  -5  -4  -1 12.2196 0.74225   3
  -5  -4  -1 13.4722 0.82762   3
   5  -4   1 13.2682 0.73002   3
  -5   4  -1 13.4518 0.62246   3
   5   4   1 13.2436 0.83338   3
   5   4   1 13.2384 0.83810   3
  -5   4  -1 12.6271 0.64297   3
   6  -4   1 21.1165 1.10095   3
   6  -4   1 20.1627 1.08085   3
  -6  -4  -1 20.8184 1.07467   3
   6   4   1 19.5664 1.17011   3
  -6   4  -1 21.3257 0.95672   3
  -6   4  -1 21.0903 0.91509   3
  -7  -4  -1 7.93350 0.75780   3
   7   4   1 6.80708 0.89144   3
  -7   4  -1 9.55390 0.91688   3
  -7   4  -1 9.27856 0.62626   3
   8  -4   1 2.81154 0.78257   3
  -8  -4  -1 2.04016 0.59075   3
  -8  -5   1 36.6471 1.82074   3
   8  -5  -1 38.4519 1.86531   3
   8   5  -1 37.5815 1.96535   3
  -7  -5   1 -0.1095 0.36974   3
   7  -5  -1 0.63260 0.35931   3
   7   5  -1 1.00497 0.47645   3
   6  -5  -1 35.4207 1.51345   3
   6  -5  -1 34.4312 1.53632   3
   6  -5  -1 35.6539 2.00722   2
  -6  -5   1 34.8188 1.57692   3
   6   5  -1 34.7307 1.63613   3
   5  -5  -1 0.51852 0.21128   3
  -5  -5   1 0.65570 0.26322   3
   5  -5  -1 0.52645 0.46335   2
  -5  -5   1 0.13841 0.31689   3
   5  -5  -1 0.58607 0.26890   3
   5   5  -1 0.16059 0.24154   3
   5   5  -1 0.47803 0.36202   3
   4  -5  -1 22.0039 0.94955   3
   4  -5  -1 24.4956 1.51038   2
  -4  -5   1 22.7026 1.06835   3
  -4  -5   1 23.8120 1.09862   3
   4  -5  -1 24.6176 0.97026   3
   4   5  -1 22.5794 1.12282   3
   4   5  -1 22.7528 1.08052   3
   4   5  -1 23.2564 1.23636   2
  -3  -5   1 36.1290 1.48781   3
  -3  -5   1 37.8747 1.49556   3
   3  -5  -1 35.0924 1.36001   3
   3  -5  -1 39.9581 1.35803   3
   3   5  -1 35.4341 1.72638   2
   3   5  -1 38.3302 1.48947   3
   3   5  -1 37.7504 1.53012   3
   2  -5  -1 17.3871 1.22250   2
  -2  -5   1 21.5703 0.89672   3
  -2  -5   1 21.4756 0.91342   3
   2   5  -1 23.0232 1.21540   2
   2   5  -1 21.2555 0.92420   3
   2   5  -1 20.8538 0.87672   3
   1  -5  -1 5.56209 0.62207   2
  -1  -5   1 4.56738 0.30997   3
  -1  -5   1 4.40408 0.33116   3
   1   5  -1 4.60159 0.28798   3
   1   5  -1 4.89277 0.33761   3
   1   5  -1 5.20348 0.56038   2
   0  -5  -1 4.93114 0.24582   3
   0  -5  -1 4.72099 0.57381   2
   0  -5   1 5.25680 0.27639   3
   0  -5   1 4.93826 0.31258   3
   0   5  -1 4.12138 0.52749   2
   0   5  -1 5.18088 0.23580   3
  -1  -5  -1 34.5965 1.30104   3
  -1  -5  -1 33.1947 1.27265   3
  -1  -5  -1 35.2052 1.65848   2
   1  -5   1 33.9131 1.22872   3
  -1   5  -1 36.1174 1.74675   2
   1   5   1 33.3260 1.26935   3
  -2  -5  -1 49.9278 1.90776   3
   2  -5   1 50.3654 1.83082   3
  -2  -5  -1 50.0714 2.21614   2
  -2  -5  -1 52.8224 1.94053   3
   2   5   1 50.3472 1.91597   3
  -2   5  -1 58.1358 2.44775   2
   3  -5   1 25.5888 0.97827   3
  -3  -5  -1 24.8562 1.06826   3
  -3  -5  -1 24.8503 1.24530   2
  -3  -5  -1 25.6811 1.10654   3
   3  -5   1 24.5702 1.00699   3
  -3   5  -1 28.1028 1.50135   2
   3   5   1 23.9781 1.08520   3
   3   5   1 24.2875 1.11252   3
   4  -5   1 10.4708 0.55688   3
   4  -5   1 10.9337 0.59410   3
  -4  -5  -1 10.3156 0.63501   3
   4   5   1 11.3064 0.69256   3
  -4   5  -1 11.6910 0.96732   2
   4   5   1 10.8265 0.69287   3
  -5  -5  -1 28.4936 1.35364   3
   5  -5   1 30.1326 1.24685   3
  -5  -5  -1 29.2057 1.30157   3
   5  -5   1 27.5910 1.26302   3
   5   5   1 29.7349 1.39721   3
   5   5   1 27.2846 1.35372   3
   6  -5   1 13.6593 0.84794   3
   6  -5   1 12.7223 0.83316   3
   7  -5   1 59.3181 2.59446   3
  -7  -5  -1 58.7274 2.46496   3
   7   5   1 61.1579 2.66697   3
  -8  -5  -1 11.2220 1.02052   3
  -8  -6   1 0.66150 0.57133   3
   8  -6  -1 1.43535 0.59642   3
   8   6  -1 0.38330 0.60375   3
  -7  -6   1 15.4899 1.05870   3
   7  -6  -1 15.5849 0.98162   3
   7   6  -1 16.4636 1.13597   3
   6  -6  -1 2.74290 0.86452   2
   6  -6  -1 2.56023 0.39811   3
   6  -6  -1 3.92713 0.50624   3
  -5  -6   1 56.8299 2.30334   3
   5  -6  -1 53.0448 2.75039   2
   5  -6  -1 58.1723 2.14770   3
   5  -6  -1 59.0780 2.14230   3
  -5  -6   1 57.6110 2.26683   3
   5   6  -1 54.0128 2.33461   3
   5   6  -1 56.3998 2.28878   3
  -4  -6   1 12.1230 0.77845   3
   4  -6  -1 13.8504 0.63240   3
   4  -6  -1 16.8803 1.28327   2
   4  -6  -1 14.0137 0.64263   3
   4   6  -1 13.3440 0.77159   3
   4   6  -1 13.4235 0.83996   3
   4   6  -1 13.9011 0.97080   2
   3  -6  -1 14.0404 1.17232   2
  -3  -6   1 16.4293 0.80012   3
   3  -6  -1 16.0970 0.63929   3
   3  -6  -1 16.9921 0.63605   3
   3   6  -1 15.8485 0.78170   3
   3   6  -1 15.9614 0.83820   3
   3   6  -1 16.0233 1.05146   2
  -2  -6   1 23.2062 0.98193   3
   2  -6  -1 20.8660 1.39034   2
   2   6  -1 22.5036 0.94500   3
   2   6  -1 22.8851 0.99249   3
   2   6  -1 23.4774 1.33763   2
  -1  -6   1 141.860 4.93291   3
  -1  -6   1 138.988 4.96144   3
   1   6  -1 143.085 5.48070   2
   1   6  -1 142.959 4.94425   3
  -1   6   1 143.750 5.49899   2
   1   6  -1 145.596 4.91300   3
   0  -6  -1 181.031 6.38513   3
   0  -6   1 185.860 6.45514   3
   0  -6   1 186.391 6.41146   3
   0   6   1 167.633 6.91465   2
   0   6  -1 220.452 7.15318   2
  -1  -6  -1 62.2456 2.26063   3
  -1  -6  -1 62.1357 2.72595   2
   1  -6   1 61.5767 2.18316   3
  -1  -6  -1 60.1685 2.23431   3
  -1   6  -1 67.6970 2.87229   2
   1   6   1 60.0827 2.22219   3
   1   6   1 65.7624 2.72397   2
   2  -6   1 49.0470 1.72752   3
  -2  -6  -1 47.3362 2.20115   2
  -2  -6  -1 48.1368 1.81988   3
  -2  -6  -1 48.8427 1.98475   3
   2   6   1 50.9083 1.83651   3
  -2   6  -1 48.0052 2.36475   2
   3  -6   1 6.85485 0.40246   3
  -3  -6  -1 6.85273 0.46479   3
   3  -6   1 7.86781 0.38070   3
  -3  -6  -1 6.80958 0.50875   3
  -3  -6  -1 6.76107 0.66703   2
  -3   6  -1 6.37293 0.76368   2
   3   6   1 6.25210 0.49126   3
  -4  -6  -1 33.8878 1.49959   3
   4  -6   1 34.3609 1.39899   3
   4  -6   1 35.2454 1.35446   3
  -4  -6  -1 34.1228 1.46545   3
  -4   6  -1 39.0428 2.00242   2
   4   6   1 34.0466 1.50573   3
   4   6   1 34.3913 1.53492   3
  -5  -6  -1 0.95330 0.42690   3
   5  -6   1 1.19499 0.30109   3
   5  -6   1 1.55700 0.31043   3
  -5  -6  -1 1.32717 0.31948   3
  -5   6  -1 1.79848 0.62025   2
   5   6   1 1.65182 0.38698   3
   5   6   1 1.98037 0.45546   3
   6  -6   1 8.94418 0.72542   3
  -6  -6  -1 11.1399 0.77280   3
   6  -6   1 9.30729 0.75726   3
   6   6   1 9.77420 0.85054   3
  -7  -6  -1 13.2082 0.99285   3
   7  -6   1 12.4169 1.01078   3
  -8  -6  -1 13.3896 1.14491   3
  -8  -7   1 3.26114 0.67000   3
   8  -7  -1 3.10919 0.71477   3
   8   7  -1 2.89854 0.78447   3
  -7  -7   1 15.2864 1.11553   3
   7  -7  -1 16.0319 1.00682   3
   7   7  -1 17.6635 1.22189   3
   6  -7  -1 4.50979 0.51361   3
  -6  -7   1 4.55072 0.60392   3
   6  -7  -1 4.46652 1.05460   2
   6  -7  -1 3.61013 0.53078   3
   6   7  -1 5.41305 0.64490   3
  -5  -7   1 8.26936 0.79065   3
  -5  -7   1 9.09914 0.66979   3
   5  -7  -1 8.02482 1.15052   2
   5  -7  -1 8.42704 0.55997   3
   5  -7  -1 7.53387 0.51213   3
   5   7  -1 6.60019 0.79506   3
   5   7  -1 8.36507 0.80861   2
   5   7  -1 7.63150 0.65949   3
  -4  -7   1 76.7606 2.94231   3
   4  -7  -1 77.3908 2.75997   3
   4  -7  -1 79.8776 2.75967   3
   4  -7  -1 81.2057 3.63298   2
  -4  -7   1 73.8055 2.94091   3
   4   7  -1 78.3280 3.30417   2
   4   7  -1 77.2679 2.94268   3
   4   7  -1 77.4945 3.00007   3
  -3  -7   1 16.3248 0.82925   3
  -3  -7   1 16.6972 0.82253   3
   3  -7  -1 14.4359 1.27433   2
   3   7  -1 16.2701 0.86672   3
   3   7  -1 15.8166 1.13401   2
   3   7  -1 16.6232 0.80397   3
  -2  -7   1 104.309 3.69553   3
   2  -7  -1 110.609 4.42170   2
  -2  -7   1 97.8157 3.70085   3
   2   7  -1 101.278 3.70385   3
   2   7  -1 106.890 4.26013   2
   2   7  -1 100.519 3.66211   3
   1  -7  -1 357.324 11.7749   2
  -1  -7   1 313.839 10.9673   3
  -1  -7   1 298.469 10.9905   3
  -1   7   1 322.452 11.6479   2
   1   7  -1 311.141 10.9294   3
   1   7  -1 308.270 10.9571   3
   1   7  -1 345.649 11.6994   2
   0  -7   1 266.988 9.38056   3
   0  -7  -1 265.270 9.35779   3
   0  -7   1 268.556 9.42169   3
   0  -7  -1 305.216 10.1893   2
   0   7   1 261.080 10.0203   2
   0   7  -1 292.173 10.1874   2
  -1  -7  -1 156.220 5.44927   3
  -1  -7  -1 153.586 5.42967   3
   1  -7   1 152.800 5.36764   3
   1   7   1 168.654 6.06160   2
   1   7   1 156.916 5.40463   3
  -2  -7  -1 5.90860 0.43290   3
  -2  -7  -1 5.38550 0.38411   3
   2  -7   1 6.12888 0.31544   3
  -2  -7  -1 6.51014 0.74049   2
  -2   7  -1 4.92596 0.73416   2
   2   7   1 5.76730 0.41817   3
  -3  -7  -1 87.8584 3.47900   2
  -3  -7  -1 81.2990 3.09388   3
  -3  -7  -1 84.9455 3.07914   3
   3  -7   1 83.6231 2.94145   3
   3   7   1 85.0162 3.10170   3
  -3   7  -1 81.4373 3.69379   2
  -4  -7  -1 31.0252 1.31777   3
   4  -7   1 30.1656 1.18352   3
  -4  -7  -1 27.7195 1.33181   3
   4  -7   1 29.3925 1.21747   3
  -4   7  -1 30.6352 1.86115   2
   4   7   1 28.3346 1.34074   3
  -5  -7  -1 29.5144 1.34421   3
   5  -7   1 28.1732 1.27340   3
   5  -7   1 29.1117 1.22628   3
  -5   7  -1 29.6790 1.87017   2
   5   7   1 28.4242 1.44025   3
   6  -7   1 0.82055 0.36699   3
   6  -7   1 0.34559 0.38962   3
  -6  -7  -1 0.69371 0.34225   3
  -7  -7  -1 0.97315 0.49736   3
  -8  -7  -1 64.2126 2.77013   3
   8  -8  -1 7.17424 0.88996   3
  -8  -8   1 8.01407 1.05659   3
   8   8  -1 4.83383 0.86941   3
  -7  -8   1 9.87702 0.97935   3
   7  -8  -1 9.83906 0.84077   3
   7   8  -1 9.95084 1.05534   3
   6  -8  -1 35.1982 2.34447   2
   6  -8  -1 34.4296 1.52277   3
  -6  -8   1 35.7326 1.63130   3
   6  -8  -1 34.8453 1.48135   3
   6   8  -1 32.0730 1.64717   3
   5  -8  -1 1.03779 0.76479   2
  -5  -8   1 0.93878 0.33565   3
   5  -8  -1 1.31564 0.25401   3
   5  -8  -1 1.21127 0.31208   3
   5   8  -1 1.05276 0.35886   3
   5   8  -1 1.45803 0.48653   2
   5   8  -1 1.23403 0.52716   3
   4  -8  -1 7.90481 1.11591   2
  -4  -8   1 7.09081 0.59887   3
   4  -8  -1 7.26259 0.42410   3
  -4  -8   1 6.78515 0.64609   3
   4  -8  -1 8.11222 0.42931   3
   4   8  -1 7.89984 0.70474   3
   4   8  -1 7.23946 0.82525   2
   4   8  -1 8.23800 0.61004   3
  -3  -8   1 54.2900 2.18872   3
  -3  -8   1 54.5990 2.18540   3
   3  -8  -1 65.4162 3.01666   2
   3   8  -1 55.4790 2.16143   3
   3   8  -1 55.6534 2.21393   3
   3   8  -1 53.6908 2.67497   2
   2  -8  -1 1.66497 0.57185   2
  -2  -8   1 1.98101 0.31380   3
  -2  -8   1 1.51427 0.26919   3
   2   8  -1 1.76307 0.25991   3
   2   8  -1 1.34084 0.29617   3
   1  -8  -1 54.3599 2.87022   2
  -1  -8   1 60.5761 2.21305   3
  -1  -8   1 57.7815 2.23680   3
   1   8  -1 60.2317 2.15662   3
  -1   8   1 66.7373 2.95377   2
   1   8  -1 63.6613 2.92824   2
   0  -8   1 249.257 8.53008   3
   0  -8   1 248.125 8.49013   3
   0  -8  -1 262.415 9.36884   2
   0   8   1 237.619 9.22530   2
  -1  -8  -1 0.03643 0.35570   2
  -1  -8  -1 0.05183 0.15258   3
  -1  -8  -1 0.01370 0.12743   3
   1  -8   1 0.15520 0.11461   3
   1   8   1 -0.0736 0.31355   2
  -1   8  -1 -0.1455 0.28673   2
   1   8   1 0.19022 0.13765   3
   2  -8   1 13.0309 0.54873   3
  -2  -8  -1 12.9830 0.65172   3
  -2  -8  -1 13.4500 1.11778   2
  -2  -8  -1 11.9475 0.67308   3
  -2   8  -1 12.0607 1.14678   2
   2   8   1 14.1212 0.67786   3
   3  -8   1 21.3081 0.84240   3
  -3  -8  -1 20.0624 0.97593   3
  -3  -8  -1 22.1352 1.39379   2
  -3  -8  -1 20.7291 1.00736   3
  -3   8  -1 20.7449 1.54586   2
   3   8   1 21.1753 1.01259   3
  -4  -8  -1 39.6887 1.66581   3
   4  -8   1 34.4535 1.54676   3
  -4  -8  -1 40.0934 1.71555   3
  -4   8  -1 46.1889 2.43984   2
   4   8   1 39.3128 1.71237   3
  -5  -8  -1 32.3085 1.47533   3
   5  -8   1 33.8853 1.34522   3
   5   8   1 29.9186 1.57164   3
  -5   8  -1 32.8661 2.09318   2
   6  -8   1 13.6820 0.91243   3
  -6  -8  -1 15.0016 0.95252   3
  -7  -8  -1 16.1692 1.13590   3
  -8  -8  -1 24.9641 1.59985   3
   8  -9  -1 1.56494 0.70870   3
  -8  -9   1 -0.4369 0.76473   3
   8   9  -1 0.13303 0.78238   3
  -7  -9   1 0.01161 0.54060   3
   7  -9  -1 -0.1074 0.41736   3
   7   9  -1 0.83179 0.63945   3
   6  -9  -1 26.5223 1.28190   3
   6  -9  -1 26.8825 2.24223   2
  -6  -9   1 29.4068 1.43296   3
   6  -9  -1 26.0299 1.22058   3
   6   9  -1 27.0870 1.46753   3
   5  -9  -1 6.08077 1.27128   2
   5  -9  -1 5.29907 0.42952   3
  -5  -9   1 6.45064 0.78258   3
   5  -9  -1 5.09684 0.49749   3
   5   9  -1 5.10104 0.85729   2
   5   9  -1 6.31068 0.65963   3
   5   9  -1 6.68034 0.92281   3
   4  -9  -1 206.309 7.86053   2
  -4  -9   1 190.482 6.88265   3
   4  -9  -1 196.193 6.62833   3
  -4  -9   1 192.495 6.90066   3
   4   9  -1 193.961 6.87218   3
   4   9  -1 192.281 7.42877   2
   4   9  -1 186.820 6.91703   3
  -3  -9   1 72.7759 2.75343   3
  -3  -9   1 73.2030 2.74782   3
   3   9  -1 69.7248 3.33138   2
   3   9  -1 72.4527 2.70868   3
   3   9  -1 72.7186 2.76327   3
  -2  -9   1 106.239 3.79540   3
  -2  -9   1 100.748 3.80159   3
   2   9  -1 109.948 4.57389   2
   2   9  -1 102.839 3.77787   3
   2   9  -1 107.262 3.74671   3
  -1  -9   1 0.91813 0.22374   3
   1  -9  -1 0.41025 0.45938   2
   1   9  -1 0.62814 0.41841   2
  -1   9   1 1.27013 0.51501   2
   0  -9  -1 11.8507 0.52380   3
   0  -9  -1 12.2409 0.54151   3
   0  -9   1 11.0283 0.57787   3
   0  -9  -1 12.4605 1.18343   2
   0  -9   1 11.9081 0.54998   3
   0   9  -1 9.35622 1.04431   2
   0   9   1 10.5520 1.06449   2
  -1  -9  -1 177.990 6.51877   3
  -1  -9  -1 199.297 7.39973   2
   1  -9   1 186.108 6.45929   3
  -1  -9  -1 185.198 6.54762   3
  -1   9  -1 200.396 7.55535   2
   1   9   1 187.572 7.30532   2
   2  -9   1 48.1098 1.71298   3
  -2  -9  -1 50.5404 2.51136   2
  -2  -9  -1 47.1806 1.86235   3
  -2  -9  -1 46.6132 1.83508   3
  -2   9  -1 47.0155 2.61034   2
   2   9   1 47.0959 1.82083   3
  -3  -9  -1 299.829 10.7378   3
  -3  -9  -1 314.682 11.3300   2
  -3  -9  -1 306.659 10.7142   3
   3  -9   1 313.498 10.5463   3
  -3   9  -1 318.476 11.7028   2
   3   9   1 312.213 10.7281   3
  -4  -9  -1 8.27855 0.62516   3
  -4  -9  -1 8.27565 0.72159   3
   4   9   1 7.69639 0.72763   3
  -4   9  -1 7.84982 1.16738   2
   5  -9   1 41.9042 1.60320   3
  -5   9  -1 38.2766 2.44483   2
  -6  -9  -1 0.41987 0.40791   3
   6  -9   1 -0.1516 0.44069   3
  -7  -9  -1 1.28250 0.54619   3
  -8  -9  -1 4.84752 1.03535   3
  -7 -10   1 36.7052 1.88619   3
   7 -10  -1 38.0431 1.71573   3
   7  10  -1 36.9577 1.97974   3
   6 -10  -1 4.19118 0.53680   3
  -6 -10   1 3.31723 0.56420   3
   6 -10  -1 4.17786 0.53530   3
   6  10  -1 4.23157 0.65115   3
   5 -10  -1 0.65338 1.15180   2
  -5 -10   1 0.25418 0.36648   3
   5 -10  -1 0.25142 0.22086   3
   5 -10  -1 -0.3431 0.28890   3
   5  10  -1 -0.0349 0.52306   2
   5  10  -1 0.70184 0.39210   3
   4 -10  -1 39.2460 2.73452   2
  -4 -10   1 48.5734 1.98998   3
   4  10  -1 49.8384 1.98210   3
   4  10  -1 51.7880 2.58407   2
   4  10  -1 45.6832 2.03129   3
  -3 -10   1 179.907 6.63549   3
   3 -10  -1 179.808 7.60066   2
  -3 -10   1 184.646 6.65749   3
   3  10  -1 187.091 6.64912   3
   3  10  -1 192.180 6.61203   3
   3  10  -1 205.227 7.50260   2
  -2 -10   1 162.264 5.82273   3
  -2 -10   1 166.338 5.81046   3
   2 -10  -1 185.259 6.94621   2
   2  10  -1 159.445 5.76753   3
   2  10  -1 153.567 6.60681   2
   2  10  -1 163.108 5.73722   3
   1 -10  -1 63.0778 3.36590   2
  -1 -10   1 70.9556 2.56887   3
  -1 -10   1 72.4746 2.54183   3
  -1  10   1 66.3039 3.35275   2
   1  10  -1 71.3026 3.44015   2
   0 -10   1 85.5484 3.02844   3
   0 -10   1 81.9656 3.05857   3
   0 -10  -1 88.4711 3.99198   2
   0 -10  -1 85.2710 3.00236   3
   0 -10  -1 84.4125 3.00995   3
   0  10  -1 87.4947 4.03064   2
   0  10   1 83.8526 3.90818   2
  -1 -10  -1 49.7440 2.61638   2
   1 -10   1 47.8283 1.72621   3
  -1 -10  -1 47.9119 1.81034   3
   1 -10   1 46.2851 1.76446   3
  -1 -10  -1 46.9894 1.78854   3
   1  10   1 41.7937 2.46311   2
  -1  10  -1 51.7876 2.73747   2
  -2 -10  -1 358.689 12.6856   3
   2 -10   1 367.757 12.5309   3
  -2 -10  -1 359.956 12.6672   3
  -2 -10  -1 405.128 13.6220   2
  -2  10  -1 372.619 13.7548   2
   2  10   1 358.339 12.6158   3
  -3 -10  -1 28.1575 1.83618   2
  -3 -10  -1 29.3200 1.29383   3
  -3 -10  -1 28.9153 1.33634   3
   3 -10   1 31.0395 1.12989   3
   3  10   1 28.3920 1.32110   3
  -4 -10  -1 15.5494 0.90031   3
  -4  10  -1 15.7741 1.57307   2
   4  10   1 16.5874 1.02753   3
  -5 -10  -1 0.34068 0.34166   3
   5 -10   1 1.08659 0.32849   3
  -5  10  -1 0.90299 0.80485   2
  -6 -10  -1 74.4973 3.01079   3
   6 -10   1 73.9324 2.84337   3
  -7 -10  -1 1.56692 0.62464   3
  -7 -11   1 38.2546 2.02278   3
   7  11  -1 41.8790 2.12896   3
  -6 -11   1 20.5734 1.30914   3
   6 -11  -1 21.6296 1.05830   3
   6  11  -1 22.4011 1.37334   3
   5 -11  -1 0.63231 0.24400   3
  -5 -11   1 1.16567 0.43045   3
   5 -11  -1 1.21294 0.33248   3
   5  11  -1 0.63370 0.42697   3
   5  11  -1 1.24231 0.67005   2
  -4 -11   1 22.7832 1.18749   3
   4  11  -1 21.9824 1.16825   3
   4  11  -1 20.8314 1.26477   3
   4  11  -1 24.2502 1.76479   2
  -3 -11   1 58.3644 2.34111   3
   3 -11  -1 61.8090 3.35951   2
  -3 -11   1 58.8676 2.33418   3
   3  11  -1 61.7298 2.28819   3
   3  11  -1 57.7918 2.32417   3
   3  11  -1 52.0433 2.96635   2
  -2 -11   1 120.289 4.45504   3
  -2 -11   1 128.686 4.45594   3
   2  11  -1 121.674 4.37383   3
  -1 -11   1 0.46923 0.25301   3
   1 -11  -1 1.70950 0.74361   2
  -1 -11   1 1.07428 0.28266   3
   1  11  -1 0.87580 0.59315   2
  -1  11   1 1.03101 0.60652   2
   0 -11  -1 1.46023 0.73052   2
   0 -11  -1 1.49598 0.25071   3
   0 -11   1 1.61376 0.29028   3
   0 -11  -1 1.69029 0.22979   3
   0 -11   1 1.35500 0.27136   3
   0  11  -1 1.93756 0.76563   2
   0  11   1 2.22860 0.80334   2
  -1 -11  -1 83.9234 2.96980   3
  -1 -11  -1 79.9234 3.88282   2
   1 -11   1 86.3720 2.88658   3
  -1 -11  -1 85.0121 2.95325   3
   1 -11   1 83.1138 2.92480   3
  -1  11  -1 68.9072 3.84705   2
   1  11   1 80.7496 3.85067   2
  -2 -11  -1 11.5339 0.66515   3
  -2 -11  -1 11.0206 1.27306   2
   2 -11   1 12.0958 0.54711   3
  -2 -11  -1 11.1271 0.70540   3
  -2  11  -1 8.69256 1.26008   2
   2  11   1 11.3329 0.62684   3
  -3 -11  -1 41.6367 1.78229   3
  -3 -11  -1 43.3792 1.74450   3
  -3  11  -1 39.7586 2.63567   2
   3  11   1 42.4603 1.75205   3
  -4 -11  -1 4.08376 0.55230   3
   4 -11   1 3.59446 0.46634   3
   4  11   1 5.46497 0.68121   3
  -4  11  -1 3.65559 1.02460   2
   5 -11   1 10.7045 0.69087   3
  -5 -11  -1 10.4643 0.87075   3
  -5  11  -1 11.6210 1.57530   2
  -6 -11  -1 13.9183 1.09048   3
  -7 -11  -1 7.84626 1.08088   3
  -7 -12   1 -0.1564 0.73349   3
  -6 -12   1 0.23170 0.53160   3
   6 -12  -1 0.29894 0.41824   3
   6  12  -1 1.26910 0.65532   3
  -5 -12   1 8.88373 0.86827   3
   5  12  -1 11.3091 1.37687   2
  -4 -12   1 6.37402 0.83016   3
   4  12  -1 4.44226 0.56930   3
   4  12  -1 4.83951 1.06946   2
   4  12  -1 4.04928 0.69962   3
  -3 -12   1 47.6486 1.91356   3
  -3 -12   1 43.8773 1.92097   3
   3  12  -1 47.2486 1.89823   3
   3  12  -1 39.1381 2.57144   2
  -2 -12   1 78.0229 2.94665   3
  -2 -12   1 79.4265 2.95084   3
   2  12  -1 75.3833 3.83991   2
  -1 -12   1 24.4278 1.10685   3
  -1 -12   1 25.2886 1.11261   3
  -1  12   1 25.6066 1.96426   2
   1  12  -1 19.9496 1.76145   2
   0 -12   1 69.5106 2.50109   3
   0 -12  -1 66.4355 2.45956   3
   0 -12   1 67.8094 2.53128   3
   0 -12  -1 68.2442 3.59992   2
   0 -12  -1 68.7350 2.47877   3
   0  12   1 67.6171 3.52439   2
  -1 -12  -1 106.448 4.98468   2
   1 -12   1 111.093 3.86602   3
   1 -12   1 109.010 3.90391   3
  -1 -12  -1 110.387 3.93167   3
  -1 -12  -1 111.952 3.95524   3
   1  12   1 113.030 5.00050   2
  -1  12  -1 109.323 5.11118   2
   2 -12   1 58.9245 2.12046   3
  -2 -12  -1 60.0629 2.27273   3
  -2 -12  -1 58.1656 2.30099   3
  -2 -12  -1 56.2103 3.13983   2
  -2  12  -1 60.2805 3.37632   2
  -3 -12  -1 0.56508 0.27954   3
  -3 -12  -1 1.22313 0.42655   3
   3  12   1 0.58611 0.40737   3
  -3  12  -1 0.86487 0.71614   2
   4 -12   1 0.88647 0.29219   3
   4  12   1 1.01278 0.55266   3
  -4  12  -1 0.46103 0.73723   2
  -5 -12  -1 0.31902 0.45233   3
  -6 -12  -1 3.79439 0.67152   3
  -7 -12  -1 111.587 4.44220   3
  -6 -13   1 0.22487 0.57174   3
  -5 -13   1 2.36802 0.66110   3
   5  13  -1 4.47830 1.14539   2
  -4 -13   1 17.3216 1.06555   3
   4  13  -1 16.4633 1.69791   2
   4  13  -1 15.7510 1.19897   3
  -3 -13   1 0.23189 0.34042   3
   3  13  -1 0.19161 0.63373   2
   3  13  -1 -0.0096 0.42944   3
  -2 -13   1 2.05392 0.47556   3
  -2 -13   1 2.74565 0.44180   3
   2  13  -1 2.92420 0.94592   2
  -1 -13   1 43.2732 1.77477   3
  -1 -13   1 42.7283 1.78548   3
   1  13  -1 45.6562 2.80944   2
   0 -13   1 14.6863 0.76664   3
   0 -13  -1 14.7496 0.73776   3
   0 -13   1 14.6417 0.77990   3
   0 -13  -1 13.2870 0.68565   3
   0  13  -1 12.6436 1.51514   2
   0  13   1 15.1513 1.57225   2
  -1 -13  -1 10.4135 0.69922   3
  -1 -13  -1 11.4144 0.65533   3
   1 -13   1 10.5564 0.63565   3
  -1  13  -1 11.3600 1.46710   2
  -2 -13  -1 7.20646 2.22735   2
  -2 -13  -1 8.57230 0.65356   3
  -2 -13  -1 9.83385 0.74424   3
  -2  13  -1 10.2097 1.45888   2
  -3 -13  -1 11.2834 0.76455   3
  -4 -13  -1 8.47486 0.75317   3
   4 -13   1 7.82512 0.56787   3
  -4  13  -1 7.20955 1.44360   2
   4  13   1 8.63223 0.96786   3
  -5 -13  -1 3.88153 0.69064   3
  -5  13  -1 2.12006 1.17622   2
  -6 -13  -1 14.2385 1.21107   3
  -6 -14   1 2.66042 0.65923   3
  -5 -14   1 17.5253 1.26190   3
   5  14  -1 16.5619 1.93939   2
  -4 -14   1 5.71679 0.75599   3
   4  14  -1 5.45222 1.27908   2
  -3 -14   1 3.85210 0.56224   3
   3  14  -1 3.41088 1.08114   2
  -2 -14   1 4.40981 0.55285   3
  -2 -14   1 3.52804 0.56370   3
   2  14  -1 4.32192 1.14582   2
  -1 -14   1 0.74374 0.38314   3
  -1 -14   1 0.97914 0.35334   3
   1  14  -1 0.23901 0.72015   2
   0 -14   1 1.02666 0.35207   3
   0 -14  -1 0.95714 0.26272   3
   0 -14   1 0.98109 0.31862   3
   0 -14  -1 1.30430 0.33542   3
   0  14  -1 1.11879 0.76675   2
   1 -14   1 3.62586 0.40907   3
  -1 -14  -1 5.14577 0.60494   3
   1 -14   1 4.02118 0.42615   3
  -1 -14  -1 4.31287 0.47667   3
   2 -14   1 15.5922 0.78298   3
  -2 -14  -1 15.2347 0.87627   3
  -2 -14  -1 13.6613 0.95411   3
   2 -14   1 15.8356 0.75558   3
  -2  14  -1 12.1154 1.66803   2
  -3 -14  -1 16.8906 1.01719   3
  -3  14  -1 19.8894 2.05244   2
  -4 -14  -1 21.1885 1.21443   3
  -4  14  -1 20.2683 2.19424   2
  -5 -14  -1 9.38750 1.01235   3
  -6 -14  -1 5.89629 0.93551   3
  -5 -15   1 0.97310 0.61945   3
   5  15  -1 2.03082 1.32275   2
   4  15  -1 6.43446 1.55279   2
  -3 -15   1 1.24933 0.46430   3
   3  15  -1 0.84401 0.91370   2
  -2 -15   1 2.10521 0.47992   3
   2  15  -1 1.47303 0.93216   2
  -1 -15   1 23.2504 1.20686   3
  -1 -15   1 24.2410 1.17939   3
   1  15  -1 20.8120 2.13092   2
   0 -15  -1 17.6103 0.94155   3
   0 -15  -1 19.3441 0.89283   3
   0 -15   1 17.7211 1.00030   3
   0 -15   1 18.7606 0.96893   3
   0  15  -1 17.7607 1.93500   2
   1 -15   1 4.17462 0.47775   3
  -1 -15  -1 3.67716 0.54369   3
  -1 -15  -1 3.96647 0.47122   3
   1 -15   1 3.15184 0.44311   3
  -1  15  -1 4.09247 1.11581   2
   2 -15   1 -0.5766 0.30675   3
   2 -15   1 -0.0155 0.34891   3
  -2 -15  -1 0.23524 0.34497   3
  -2  15  -1 -0.3911 0.81948   2
  -3 -15  -1 0.49238 0.45468   3
  -3  15  -1 0.29801 1.02899   2
  -4 -15  -1 1.31862 0.54294   3
  -4  15  -1 -0.1634 1.13540   2
  -5 -15  -1 14.9214 1.20515   3
  -5 -16   1 4.32332 0.79739   3
  -4 -16   1 5.44640 0.84689   3
   4  16  -1 5.95958 1.61726   2
  -3 -16   1 3.70930 0.69193   3
   3  16  -1 2.89355 1.12446   2
  -2 -16   1 1.20477 0.50969   3
   2  16  -1 0.29382 0.89663   2
  -1 -16   1 0.52542 0.54980   3
   1 -16  -1 0.05343 0.27110   3
  -1 -16   1 0.41176 0.41926   3
   1  16  -1 0.44544 0.95065   2
   0 -16  -1 0.06650 0.31189   3
   0 -16  -1 -0.0385 0.43318   3
   0 -16   1 0.07851 0.47708   3
   0 -16   1 0.36958 0.38689   3
   0  16  -1 0.70804 0.97227   2
   1 -16   1 5.53111 0.61700   3
  -1 -16  -1 5.70073 0.68583   3
  -1 -16  -1 5.30357 0.64686   3
  -1  16  -1 4.63536 1.31074   2
  -2 -16  -1 -0.0773 0.41897   3
  -2  16  -1 1.07504 1.19230   2
  -3 -16  -1 14.9736 1.09051   3
  -3  16  -1 15.0602 2.17284   2
  -4 -16  -1 5.65294 0.78623   3
  -4  16  -1 7.92713 1.81036   2
  -5 -16  -1 5.40882 0.83772   3
  -4 -17   1 12.7209 1.26906   3
   4  17  -1 14.2533 2.42641   2
  -3 -17   1 5.17355 0.79835   3
   3  17  -1 5.81058 1.65175   2
  -2 -17   1 38.2776 1.87851   3
   2  17  -1 42.6890 3.19908   2
   1 -17  -1 -0.2590 0.35453   3
  -1 -17   1 0.50489 0.50176   3
   1  17  -1 -0.6340 0.98284   2
   0 -17  -1 0.13451 0.37029   3
   0 -17   1 0.95724 0.45910   3
   0  17  -1 0.00985 1.04416   2
  -1 -17  -1 26.3889 1.31654   3
   1 -17   1 25.3142 1.28254   3
  -1  17  -1 31.6126 2.77655   2
  -2  17  -1 1.55473 1.18684   2
  -3 -17  -1 4.89004 0.73645   3
  -3  17  -1 3.82472 1.52261   2
  -4 -17  -1 3.01738 0.76935   3
  -4  17  -1 2.60283 1.57462   2
  -3 -18   1 44.1934 2.16278   3
   3  18  -1 42.0844 3.49527   2
  -2 -18   1 66.9808 2.77260   3
   2  18  -1 63.9899 4.19226   2
  -1 -18   1 25.7299 1.44965   3
   1  18  -1 29.4493 2.83362   2
   0 -18   1 16.9673 1.12240   3
   0  18  -1 20.1900 2.44228   2
  -1 -18  -1 96.4411 3.65021   3
  -1  18  -1 98.0924 5.49760   2
  -2 -18  -1 51.3654 2.21139   3
  -2  18  -1 48.2681 3.71493   2
  -3 -18  -1 0.81521 0.67475   3
  -3  18  -1 0.24112 1.55464   2
  -2 -19   1 96.2598 3.79038   3
   2  19  -1 93.0466 5.45108   2
  -1 -19   1 4.48857 0.96955   3
   1  19  -1 2.09476 1.37963   2
   0  19  -1 -0.6900 1.20001   2
  -1  19  -1 32.4133 3.25810   2
  -9   0   2 54.7545 2.46071   3
   9   0  -2 59.2962 2.68465   3
   8   0  -2 0.72303 0.50605   3
   7   0  -2 65.1760 2.68356   3
  -7   0   2 65.4851 2.63881   3
  -7   0   2 66.5461 2.53447   3
  -6   0   2 46.9058 1.84430   3
   6   0  -2 46.1744 1.93870   3
  -6   0   2 47.3135 1.91664   3
   6   0  -2 43.7624 1.99001   3
   5   0  -2 22.4235 1.13578   3
  -5   0   2 23.9226 1.03690   3
   5   0  -2 23.0811 1.08336   3
  -5   0   2 22.6414 1.07440   3
   4   0  -2 151.245 5.44409   3
  -4   0   2 154.089 5.40455   3
   4   0  -2 155.911 5.48272   3
  -4   0   2 158.457 5.42901   3
  -3   0   2 39.2885 1.51818   3
   3   0  -2 39.7121 1.53474   3
   3   0  -2 40.6119 1.57632   3
  -3   0   2 40.1292 1.52297   3
   2   0  -2 143.737 4.94229   3
  -2   0   2 139.976 4.94109   3
  -2   0   2 141.217 4.92909   3
   2   0  -2 146.202 4.97478   3
   1   0  -2 9587.13 335.180   1
  -1   0   2 9999.99 335.426   1
   0   0  -2 10.7684 0.47843   3
   0   0   2 10.5514 0.46931   3
  -1   0  -2 8.97246 0.43642   3
   1   0   2 9.55927 0.43288   3
   2   0   2 28.9437 1.11216   3
  -2   0  -2 28.7378 1.15421   3
  -2   0  -2 28.7343 1.11821   3
  -3   0  -2 4.38493 0.33151   3
   3   0   2 4.47685 0.34435   3
  -4   0  -2 150.040 5.32453   3
  -4   0  -2 153.193 5.36653   3
   4   0   2 153.127 5.35735   3
  -5   0  -2 214.971 7.66517   3
   5   0   2 222.762 7.69095   3
  -5   0  -2 220.674 7.63370   3
  -6   0  -2 12.2718 0.74737   3
  -6   0  -2 10.1114 0.83036   3
  -7   0  -2 58.0716 2.47954   3
  -8   0  -2 133.421 4.93813   3
  -9  -1   2 6.08485 0.87277   3
   9  -1  -2 5.82578 0.82684   3
   9   1  -2 4.69010 0.93217   3
   8  -1  -2 10.9162 1.02424   3
  -8  -1   2 10.6809 0.89447   3
   8   1  -2 13.4670 1.08510   3
  -8   1   2 11.7993 0.87086   3
  -7  -1   2 2.86107 0.49457   3
  -7  -1   2 3.02044 0.64559   3
  -7   1   2 2.14108 0.55581   3
  -7   1   2 3.58014 0.44592   3
   7   1  -2 3.45648 0.53864   3
   6  -1  -2 178.519 6.43370   2
  -6  -1   2 178.424 6.16186   3
  -6  -1   2 172.102 6.20968   3
   6  -1  -2 169.319 6.27182   3
   6  -1  -2 170.752 6.21968   3
   6   1  -2 172.960 6.39346   3
   6   1  -2 175.541 6.25975   3
  -6   1   2 174.131 6.15058   3
  -6   1   2 176.560 6.09870   3
   5  -1  -2 5.68416 0.50532   3
  -5  -1   2 7.11013 0.52899   3
   5  -1  -2 7.26636 0.61005   3
  -5  -1   2 6.82924 0.58894   3
   5   1  -2 7.37506 0.56177   3
  -5   1   2 6.88674 0.48427   3
  -5   1   2 7.33822 0.54640   3
   5   1  -2 6.73320 0.64475   3
   4  -1  -2 9.31862 0.55789   3
   4  -1  -2 10.3429 0.61817   3
  -4  -1   2 9.94426 0.57458   3
  -4  -1   2 10.6753 0.61321   3
   4   1  -2 9.90821 0.58440   3
  -4   1   2 10.6593 0.57215   3
   4   1  -2 9.38736 0.64078   3
  -4   1   2 10.1830 0.53179   3
  -3  -1   2 136.579 4.85080   3
   3  -1  -2 140.724 4.86811   3
  -3  -1   2 142.076 4.85907   3
   3  -1  -2 134.952 4.83458   3
   3   1  -2 139.722 4.86619   3
  -3   1   2 138.942 4.80890   3
  -3   1   2 138.429 4.81264   3
   2  -1  -2 64.8649 2.31285   3
  -2  -1   2 64.9604 2.30208   3
   2  -1  -2 61.7790 2.27940   3
  -2  -1   2 63.6160 2.31603   3
  -2   1   2 65.0282 2.27792   3
   2   1  -2 63.6730 2.30476   3
  -2   1   2 63.7471 2.26563   3
   2   1  -2 63.1783 2.33702   3
   1   1  -2 736.121 32.9362   1
  -1   1   2 833.488 32.6839   1
   0  -1  -2 2306.24 84.0833   1
   0  -1   2 2251.71 84.2981   1
   0   1  -2 2288.45 84.4323   1
   0   1   2 2388.62 84.0216   1
  -1  -1  -2 184.375 6.15369   3
   1  -1   2 176.289 6.14343   3
   1   1   2 181.354 6.14286   3
  -1   1  -2 177.199 6.14969   3
  -2  -1  -2 1.94612 0.23311   3
   2  -1   2 2.22949 0.23192   3
  -2  -1  -2 2.59010 0.28885   3
  -2   1  -2 2.76537 0.27077   3
   2   1   2 2.77732 0.25524   3
  -2   1  -2 2.08547 0.23485   3
  -3  -1  -2 77.1760 2.84011   3
   3  -1   2 78.1656 2.79130   3
  -3  -1  -2 77.9408 2.80039   3
  -3   1  -2 77.4104 2.81084   3
  -3   1  -2 77.1781 2.78506   3
   3   1   2 78.5671 2.81335   3
   4  -1   2 0.11729 0.17572   3
  -4  -1  -2 0.35431 0.20721   3
  -4  -1  -2 0.17803 0.23190   3
  -4   1  -2 0.24912 0.25794   2
  -4   1  -2 0.39761 0.18756   3
   4   1   2 0.09905 0.21168   3
  -4   1  -2 0.10027 0.20024   3
   5  -1   2 200.464 6.85554   3
  -5  -1  -2 188.440 6.85305   3
  -5  -1  -2 190.272 6.81247   3
  -5   1  -2 195.264 6.79644   3
  -5   1  -2 197.912 6.82649   3
   5   1   2 195.886 6.87237   3
  -6  -1  -2 0.55967 0.43678   3
  -6  -1  -2 0.60807 0.30277   3
  -6   1  -2 0.73928 0.32841   3
  -6   1  -2 -0.5242 0.37500   3
  -7  -1  -2 14.3346 0.91538   3
  -7   1  -2 14.6573 1.08935   3
  -7   1  -2 13.2292 0.89877   3
  -8  -1  -2 6.04193 0.80448   3
  -8   1  -2 7.49897 0.93121   3
   9  -2  -2 1.94727 0.74401   3
  -9  -2   2 2.38002 0.78129   3
   9   2  -2 2.39641 0.74578   3
   8  -2  -2 10.4565 0.99703   3
  -8  -2   2 12.2911 0.94816   3
   8   2  -2 7.81051 0.99769   3
  -8   2   2 11.8266 0.83444   3
   7  -2  -2 92.0798 3.66172   3
  -7  -2   2 95.6766 3.59851   3
   7   2  -2 95.5119 3.71697   3
  -7   2   2 94.7941 3.52658   3
  -7   2   2 98.2777 3.45373   3
  -6  -2   2 82.3308 3.15469   3
   6  -2  -2 81.6853 3.39990   2
   6  -2  -2 78.2390 3.09916   3
   6  -2  -2 83.3668 3.17606   3
  -6  -2   2 83.8864 3.09392   3
  -6   2   2 80.4074 3.02577   3
  -6   2   2 81.1085 2.96119   3
   6   2  -2 83.9921 3.17902   3
  -5  -2   2 -0.2105 0.20988   3
   5  -2  -2 0.40763 0.45462   2
   5  -2  -2 -0.2073 0.18578   3
  -5  -2   2 0.39783 0.32412   3
   5  -2  -2 0.06317 0.27839   3
   5   2  -2 0.11327 0.21170   3
  -5   2   2 0.33775 0.18802   3
   5   2  -2 -0.2231 0.31161   3
   4  -2  -2 11.1794 0.59925   3
  -4  -2   2 10.8754 0.62216   3
  -4  -2   2 10.7953 0.65165   3
   4  -2  -2 11.4058 0.64461   3
   4   2  -2 11.0756 0.70219   3
   4   2  -2 11.1332 0.63482   3
  -4   2   2 10.5168 0.56526   3
  -4   2   2 10.9816 0.53360   3
  -3  -2   2 188.206 6.74073   3
   3  -2  -2 197.748 6.64765   3
   3  -2  -2 186.772 6.61847   3
  -3  -2   2 188.836 6.66793   3
   3   2  -2 191.875 6.67056   3
   3   2  -2 196.392 6.71752   3
  -3   2   2 193.972 6.58366   3
  -3   2   2 194.727 6.57418   3
   2  -2  -2 15.7698 0.66451   3
  -2  -2   2 16.0322 0.68428   3
  -2  -2   2 14.8268 0.69645   3
   2  -2  -2 14.7997 0.63213   3
  -2   2   2 12.1648 0.71022   3
   2   2  -2 14.8056 0.66813   3
  -2   2   2 14.8413 0.60521   3
   2   2  -2 15.2979 0.71836   3
  -1  -2   2 382.863 12.8897   3
   1  -2  -2 359.021 12.8180   3
   1  -2  -2 378.379 12.8493   3
  -1  -2   2 381.002 12.8549   3
   1   2  -2 383.234 12.8523   3
   1   2  -2 387.958 12.8959   3
  -1   2   2 382.743 12.8224   3
  -1   2   2 378.675 12.7928   3
   0  -2  -2 13.4847 0.61847   3
   0  -2   2 15.1488 0.61179   3
   0   2   2 14.3125 0.57189   3
   0   2  -2 14.3144 0.60485   3
  -1  -2  -2 594.656 26.7226   1
   1  -2   2 545.473 25.8032   1
  -1   2  -2 582.664 26.5944   1
  -2  -2  -2 31.6840 1.28308   3
   2  -2   2 32.1157 1.21804   3
  -2  -2  -2 32.0555 1.23683   3
   2   2   2 33.1966 1.23895   3
  -2   2  -2 31.9574 1.23974   3
  -2   2  -2 31.5504 1.21754   3
   3  -2   2 193.290 6.68114   3
  -3  -2  -2 189.868 6.74644   3
  -3   2  -2 195.325 6.67681   3
  -3   2  -2 197.136 6.69382   3
   3   2   2 194.365 6.72215   3
  -4  -2  -2 200.784 7.03775   3
   4  -2   2 205.366 6.97343   3
  -4  -2  -2 197.440 6.98391   3
  -4   2  -2 198.318 6.93781   3
  -4   2  -2 207.411 7.23597   2
  -4   2  -2 202.482 6.96421   3
   4   2   2 194.226 7.00538   3
   5  -2   2 52.0510 2.01869   3
  -5  -2  -2 50.2697 2.06062   3
  -5  -2  -2 51.3633 2.01315   3
   5   2   2 49.7547 2.05105   3
  -5   2  -2 50.3121 1.98047   3
  -5   2  -2 50.4944 1.95518   3
  -6  -2  -2 75.9735 3.07265   3
  -6  -2  -2 72.5807 2.81277   3
  -6   2  -2 73.2537 2.75176   3
  -6   2  -2 71.0522 2.78865   3
  -7  -2  -2 5.45407 0.68248   3
  -7   2  -2 4.22113 0.64871   3
  -7   2  -2 5.05173 0.57295   3
  -8  -2  -2 4.35297 0.69420   3
   9  -3  -2 0.53463 0.76547   3
  -9  -3   2 0.32577 0.77591   3
   9   3  -2 0.51145 0.80960   3
  -8  -3   2 4.20818 0.67855   3
   8  -3  -2 4.13596 0.68909   3
   8   3  -2 4.33075 0.66403   3
  -8   3   2 4.31712 0.50384   3
  -7  -3   2 43.1649 1.88626   3
   7  -3  -2 45.2133 1.93102   3
   7   3  -2 43.2443 1.98868   3
  -7   3   2 44.0168 1.70041   3
  -7   3   2 44.9749 1.78659   3
  -6  -3   2 27.0771 1.37892   3
   6  -3  -2 25.8892 1.33109   3
   6  -3  -2 27.2356 1.26715   3
   6  -3  -2 25.2053 1.63418   2
  -6  -3   2 28.4802 1.29402   3
   6   3  -2 28.2500 1.34699   3
  -6   3   2 27.6782 1.24826   3
  -6   3   2 28.3607 1.10741   3
  -5  -3   2 9.69059 0.71662   3
   5  -3  -2 10.4351 0.62880   3
   5  -3  -2 10.4561 0.69309   3
   5  -3  -2 10.6913 1.03244   2
  -5  -3   2 10.1853 0.67671   3
  -5   3   2 11.4156 0.58086   3
  -5   3   2 10.5544 0.52083   3
   5   3  -2 10.3491 0.68955   3
   5   3  -2 10.0882 0.79493   3
   4  -3  -2 194.884 6.66856   3
   4  -3  -2 186.016 7.17487   2
  -4  -3   2 190.521 6.70827   3
  -4  -3   2 196.080 6.71984   3
   4  -3  -2 187.468 6.63948   3
   4   3  -2 194.371 6.77456   3
  -4   3   2 190.639 6.56248   3
  -4   3   2 193.345 6.54242   3
   3  -3  -2 20.7173 0.84967   3
   3  -3  -2 18.5909 0.81325   3
  -3  -3   2 18.3321 0.88949   3
  -3   3   2 20.3899 0.76592   3
   3   3  -2 19.0681 0.87547   3
   3   3  -2 20.4084 0.94851   3
  -2  -3   2 22.2046 0.89984   3
   2  -3  -2 19.3902 0.84432   3
   2  -3  -2 20.5358 0.84260   3
  -2  -3   2 20.3547 0.90976   3
   2   3  -2 20.1725 0.87913   3
  -2   3   2 21.9062 0.77685   3
  -2   3   2 21.1232 0.76889   3
   1  -3  -2 42.2333 1.52183   3
   1  -3  -2 42.7497 1.55946   3
  -1  -3   2 42.7525 1.61897   3
  -1  -3   2 44.1734 1.58331   3
   1   3  -2 43.7306 1.62187   3
   1   3  -2 40.0469 1.56656   3
  -1   3   2 43.1344 1.48862   3
  -1   3   2 42.2399 1.51282   3
   0  -3  -2 71.7616 2.72193   3
   0  -3   2 78.9285 2.72558   3
   0   3   2 79.8470 2.67575   3
   0   3  -2 78.7535 2.71634   3
   1  -3   2 214.280 7.37939   3
  -1  -3  -2 217.681 7.38076   3
  -1   3  -2 216.956 7.37156   3
   1   3   2 216.335 7.37146   3
   2  -3   2 563.674 18.7431   3
  -2  -3  -2 564.591 18.8198   3
  -2  -3  -2 536.499 18.7586   3
   2   3   2 555.903 18.7699   3
  -2   3  -2 559.659 18.7437   3
  -2   3  -2 548.087 18.7303   3
  -3  -3  -2 4.80743 0.36966   3
   3  -3   2 5.68354 0.37143   3
  -3  -3  -2 5.00912 0.43304   3
   3   3   2 5.28225 0.41009   3
  -3   3  -2 5.59233 0.36725   3
  -3   3  -2 5.20140 0.34766   3
  -3   3  -2 5.02348 0.58141   2
  -4  -3  -2 14.7116 0.74949   3
  -4  -3  -2 13.7702 0.80404   3
   4  -3   2 15.1074 0.73250   3
  -4   3  -2 14.7000 0.99889   2
  -4   3  -2 15.2827 0.71557   3
  -4   3  -2 14.1335 0.69157   3
   4   3   2 14.8860 0.78996   3
   5  -3   2 77.1340 2.86110   3
  -5  -3  -2 71.9115 2.92078   3
  -5  -3  -2 77.1488 2.88262   3
  -5   3  -2 77.8722 2.82311   3
   5   3   2 72.6375 2.92262   3
  -5   3  -2 77.8425 2.80045   3
  -5   3  -2 80.0282 3.12023   2
  -6  -3  -2 0.75621 0.31812   3
  -6   3  -2 0.38765 0.38734   3
  -6   3  -2 0.28510 0.28991   3
  -7  -3  -2 0.28454 0.44826   3
  -7   3  -2 0.36456 0.54405   3
  -7   3  -2 0.36162 0.40249   3
  -8  -3  -2 3.04744 0.65867   3
  -8   3  -2 2.18313 0.61508   3
   9  -4  -2 7.11375 0.92390   3
  -9  -4   2 7.81790 0.93812   3
   9   4  -2 7.09315 1.09170   3
  -8  -4   2 -0.8189 0.53148   3
   8  -4  -2 0.17494 0.51865   3
   8   4  -2 0.42241 0.55640   3
  -7  -4   2 14.2275 0.94612   3
   7  -4  -2 13.9367 0.92829   3
   7  -4  -2 12.7318 1.37266   2
   7   4  -2 13.4974 0.99362   3
   6  -4  -2 7.70128 0.61839   3
   6  -4  -2 9.16115 0.77301   3
   6  -4  -2 7.99511 1.12516   2
  -6  -4   2 9.00040 0.70695   3
   6   4  -2 7.98583 0.69131   3
  -5  -4   2 6.25656 0.57077   3
   5  -4  -2 5.83999 0.92133   2
   5  -4  -2 6.19998 0.57000   3
   5  -4  -2 6.04275 0.47246   3
  -5  -4   2 5.81473 0.60675   3
   5   4  -2 7.27550 0.69904   3
   5   4  -2 6.15181 0.55257   3
   4  -4  -2 0.21671 0.21322   3
  -4  -4   2 0.00342 0.19259   3
  -4  -4   2 0.15387 0.22412   3
   4  -4  -2 0.35933 0.42059   2
   4  -4  -2 0.16206 0.15702   3
   4   4  -2 -0.0742 0.18057   3
   4   4  -2 0.07300 0.30697   3
   3  -4  -2 142.340 4.91142   3
   3  -4  -2 137.538 4.89380   3
   3  -4  -2 143.729 5.57807   2
  -3  -4   2 147.113 5.00573   3
  -3  -4   2 137.128 5.00518   3
   3   4  -2 140.979 4.99155   3
   3   4  -2 142.593 5.04887   3
   2  -4  -2 4.96804 0.30319   3
  -2  -4   2 5.38052 0.41249   3
   2  -4  -2 5.19908 0.32574   3
  -2  -4   2 5.98158 0.40438   3
   2   4  -2 4.92623 0.42004   3
   2   4  -2 5.31099 0.36050   3
   1  -4  -2 82.3827 2.90677   3
   1  -4  -2 81.8469 2.86830   3
  -1  -4   2 81.6923 2.98758   3
  -1  -4   2 82.4670 2.94931   3
   1   4  -2 86.4795 2.99222   3
   1   4  -2 83.9039 2.93943   3
   0  -4   2 240.101 8.15958   3
   0  -4  -2 233.908 8.07588   3
   0  -4   2 237.499 8.11293   3
   0   4  -2 242.109 8.09752   3
   0   4   2 235.559 8.05206   3
  -1  -4  -2 225.632 7.78349   3
   1  -4   2 228.178 7.78324   3
  -1   4  -2 223.212 7.75926   3
   1   4   2 235.862 7.78244   3
  -2  -4  -2 375.129 13.7089   3
   2  -4   2 404.114 13.5607   3
  -2  -4  -2 393.171 13.5891   3
   2   4   2 410.218 13.5998   3
  -2   4  -2 404.166 13.5379   3
  -2   4  -2 413.944 13.5434   3
  -3  -4  -2 1.95728 0.43903   2
  -3  -4  -2 2.21634 0.28555   3
   3  -4   2 1.97690 0.32101   3
  -3  -4  -2 2.11727 0.30779   3
   3   4   2 2.37606 0.32445   3
  -3   4  -2 1.92213 0.46529   2
  -3   4  -2 1.96302 0.24478   3
  -3   4  -2 2.06495 0.24712   3
   4  -4   2 27.4947 1.11593   3
  -4  -4  -2 26.1750 1.22212   3
  -4  -4  -2 27.0372 1.16654   3
  -4   4  -2 26.1572 1.50981   2
  -4   4  -2 25.8947 1.06293   3
   4   4   2 26.1803 1.19146   3
  -4   4  -2 26.3440 1.07113   3
  -5  -4  -2 28.6132 1.38048   3
   5  -4   2 30.0679 1.27949   3
  -5  -4  -2 30.1662 1.32586   3
  -5   4  -2 29.7446 1.20774   3
  -5   4  -2 28.8128 1.60547   2
  -5   4  -2 28.8803 1.37586   3
   5   4   2 30.1535 1.39789   3
  -6   4  -2 2.46682 0.40398   3
  -6   4  -2 2.22580 0.34543   3
  -7  -4  -2 -0.1071 0.45077   3
  -7   4  -2 0.08918 0.37779   3
  -8  -4  -2 12.2391 1.08548   3
   8  -5  -2 1.62758 0.59665   3
  -8  -5   2 2.61929 0.62076   3
   8   5  -2 1.74054 0.66515   3
   7  -5  -2 16.7767 0.99336   3
  -7  -5   2 15.1700 1.03141   3
   7  -5  -2 14.1232 1.53109   2
   7   5  -2 14.5342 1.06059   3
   6  -5  -2 44.5244 1.88173   3
   6  -5  -2 44.6718 2.48872   2
   6  -5  -2 44.6076 1.82428   3
  -6  -5   2 45.1281 1.90681   3
   6   5  -2 41.3574 2.36463   3
   5  -5  -2 4.29987 0.39837   3
   5  -5  -2 3.85050 0.86977   2
  -5  -5   2 4.35472 0.51616   3
   5  -5  -2 3.93142 0.48472   3
  -5  -5   2 4.51348 0.58240   3
   5   5  -2 3.56458 0.47984   3
   5   5  -2 3.37368 0.59265   2
   5   5  -2 4.29337 0.63469   3
  -4  -5   2 84.9616 3.18442   3
   4  -5  -2 83.6877 3.04654   3
   4  -5  -2 83.6679 3.17199   3
   4  -5  -2 89.1447 3.74728   2
  -4  -5   2 87.0603 3.19154   3
   4   5  -2 83.0617 3.16627   3
  -3  -5   2 249.081 8.33057   3
   3  -5  -2 256.195 8.92813   2
   3  -5  -2 236.784 8.19878   3
   3  -5  -2 235.193 8.18729   3
  -3  -5   2 236.893 8.33425   3
   3   5  -2 239.866 8.36475   3
   3   5  -2 227.494 8.29439   3
   2  -5  -2 253.444 8.78908   3
  -2  -5   2 255.368 8.92918   3
  -2  -5   2 259.312 8.89563   3
   2  -5  -2 266.645 9.46643   2
   2  -5  -2 250.282 8.77014   3
   2   5  -2 262.514 8.88520   3
   2   5  -2 265.006 8.94621   3
  -1  -5   2 112.023 3.78295   3
   1  -5  -2 106.441 3.71768   3
   1  -5  -2 106.616 3.67648   3
  -1  -5   2 104.817 3.81520   3
   1   5  -2 107.440 3.75684   3
   1   5  -2 107.126 3.80679   3
   0  -5   2 0.73716 0.20150   3
   0  -5  -2 0.65145 0.36650   2
   0  -5  -2 0.71838 0.13385   3
   0  -5   2 0.93752 0.17317   3
   0   5   2 0.63481 0.11898   3
   0   5   2 0.72471 0.14819   3
   0   5  -2 0.62367 0.13945   3
  -1  -5  -2 77.1227 2.80233   3
  -1  -5  -2 78.4136 3.25847   2
   1  -5   2 81.6627 2.80965   3
   1   5   2 80.8765 2.80291   3
  -2  -5  -2 87.7521 3.13716   3
   2  -5   2 88.1416 3.04511   3
  -2  -5  -2 91.8437 3.47763   2
  -2  -5  -2 85.6029 3.07914   3
  -2   5  -2 73.9046 3.52617   2
   2   5   2 88.2156 3.08876   3
  -2   5  -2 88.2833 2.99161   3
  -3  -5  -2 20.6211 1.19698   2
  -3  -5  -2 21.2300 1.02205   3
  -3  -5  -2 22.4648 0.97595   3
  -3   5  -2 22.0805 0.86128   3
  -3   5  -2 23.6551 1.41769   2
  -3   5  -2 22.2918 0.85859   3
   3   5   2 22.0801 0.99815   3
   4  -5   2 21.5259 0.94462   3
  -4  -5  -2 20.6594 1.07286   3
  -4  -5  -2 19.9655 1.00081   3
   4   5   2 21.2476 1.05435   3
  -4   5  -2 23.4150 1.45354   2
  -4   5  -2 22.4275 0.88142   3
  -4   5  -2 21.3763 0.87142   3
  -5  -5  -2 13.7732 0.93225   3
   5  -5   2 15.9216 0.82476   3
  -5  -5  -2 15.9429 0.87245   3
   5   5   2 15.3456 0.95478   3
  -5   5  -2 15.1653 0.70339   3
  -5   5  -2 16.3850 0.73143   3
  -5   5  -2 15.2698 1.20677   2
  -6  -5  -2 12.2185 0.81670   3
  -6   5  -2 11.6306 0.63209   3
  -6   5  -2 12.0373 0.67948   3
  -7  -5  -2 72.2155 2.92501   3
  -8  -5  -2 3.95548 0.74452   3
  -8  -6   2 7.18851 0.98011   3
   8  -6  -2 7.35404 0.94913   3
   8   6  -2 5.04803 0.78012   3
   7  -6  -2 20.6225 1.16242   3
  -7  -6   2 21.8273 1.27112   3
   7  -6  -2 20.8996 2.26812   2
   7   6  -2 21.8617 1.30887   3
   6  -6  -2 0.95219 0.42795   3
  -6  -6   2 0.73224 0.35533   3
   6  -6  -2 0.87462 0.31977   3
   6  -6  -2 0.81801 0.80197   2
   6   6  -2 0.60589 0.35732   3
   5  -6  -2 15.3911 0.77304   3
   5  -6  -2 14.6699 1.37867   2
  -5  -6   2 15.9097 0.92143   3
  -5  -6   2 14.8931 0.97784   3
   5  -6  -2 16.2796 0.84546   3
   5   6  -2 16.1452 1.13790   2
   5   6  -2 15.1873 0.89632   3
   5   6  -2 15.2424 1.03131   3
   4  -6  -2 31.6784 1.23962   3
  -4  -6   2 30.5607 1.39808   3
   4  -6  -2 31.8959 1.26297   3
   4  -6  -2 32.3389 1.93908   2
  -4  -6   2 31.9845 1.40875   3
   4   6  -2 31.1196 1.37546   3
   4   6  -2 31.0594 1.67844   2
   4   6  -2 30.2880 1.44537   3
  -3  -6   2 28.6140 1.23831   3
   3  -6  -2 27.9026 1.06311   3
  -3  -6   2 29.4719 1.23361   3
   3  -6  -2 23.7236 1.66674   2
   3  -6  -2 29.1871 1.07867   3
   3   6  -2 28.2707 1.26600   3
   3   6  -2 26.6479 1.17711   3
   2  -6  -2 108.129 3.69887   3
   2  -6  -2 106.818 3.67716   3
   2  -6  -2 107.228 4.42388   2
  -2  -6   2 107.351 3.86425   3
  -2  -6   2 104.951 3.82661   3
   2   6  -2 110.399 3.80938   3
   2   6  -2 105.667 3.95203   3
   1  -6  -2 253.273 8.70958   3
   1  -6  -2 275.572 9.50189   2
  -1  -6   2 256.155 8.86933   3
  -1  -6   2 253.399 8.82406   3
   1   6  -2 250.636 8.84083   3
   1   6  -2 256.941 8.79573   3
   0  -6   2 217.201 7.34396   3
   0  -6  -2 183.677 7.79346   2
   0  -6   2 222.115 7.29355   3
   0  -6  -2 222.633 7.24088   3
   0   6  -2 217.605 7.24742   3
  -1  -6  -2 2.78725 0.25260   3
   1  -6   2 3.23236 0.27466   3
  -1  -6  -2 1.83564 0.66063   2
   1   6   2 2.79459 0.26094   3
  -1   6  -2 3.27620 0.21294   3
  -1   6  -2 2.89973 0.55150   2
  -2  -6  -2 19.1568 0.80625   3
  -2  -6  -2 17.0826 1.15799   2
   2  -6   2 17.9453 0.75920   3
  -2  -6  -2 17.6772 0.85118   3
   2   6   2 18.6102 0.80924   3
  -2   6  -2 16.1939 1.23638   2
  -3  -6  -2 0.05425 0.32122   2
  -3  -6  -2 -0.2325 0.15142   3
  -3  -6  -2 0.16631 0.23091   3
  -3   6  -2 0.12854 0.34973   2
   3   6   2 0.42389 0.21636   3
  -4  -6  -2 7.39187 0.64337   3
   4  -6   2 8.61252 0.51130   3
  -4  -6  -2 8.23856 0.75517   2
  -4  -6  -2 8.42439 0.58345   3
  -4   6  -2 7.16812 0.91124   2
   4   6   2 6.82997 0.61543   3
   5  -6   2 86.1172 3.04689   3
  -5  -6  -2 84.7176 3.12780   3
  -5   6  -2 78.4773 3.63085   2
   5   6   2 79.5125 3.20059   3
  -6  -6  -2 2.15037 0.47524   3
  -6   6  -2 1.33839 0.64523   2
  -7  -6  -2 30.5741 1.55690   3
  -8  -6  -2 5.98489 0.82235   3
   8  -7  -2 7.85920 1.00431   3
   8   7  -2 8.93014 1.14671   3
   7  -7  -2 3.24355 0.54489   3
  -7  -7   2 2.92590 0.66325   3
   7   7  -2 4.25493 0.73306   3
   6  -7  -2 1.40147 0.45161   3
   6  -7  -2 0.73843 0.81681   2
  -6  -7   2 0.86422 0.41774   3
   6  -7  -2 0.93083 0.30879   3
   6   7  -2 -0.0985 0.36582   3
   6   7  -2 0.16022 0.46110   2
   5  -7  -2 19.2761 0.88917   3
  -5  -7   2 20.1540 1.06743   3
   5  -7  -2 21.3841 0.96492   3
   5  -7  -2 18.5858 1.65828   2
   5   7  -2 19.3448 1.05840   3
   5   7  -2 17.6186 1.27500   2
   5   7  -2 17.5209 1.17964   3
  -4  -7   2 0.39091 0.26331   3
   4  -7  -2 0.47394 0.21643   3
   4  -7  -2 0.42609 0.54104   2
  -4  -7   2 0.37918 0.33116   3
   4  -7  -2 0.40541 0.17896   3
   4   7  -2 0.32227 0.40317   2
   4   7  -2 1.03866 0.29452   3
   4   7  -2 0.50837 0.34828   3
  -3  -7   2 2.30120 0.37534   3
   3  -7  -2 2.43777 0.68528   2
   3  -7  -2 2.03332 0.25717   3
  -3  -7   2 2.84398 0.41537   3
   3  -7  -2 1.63497 0.26988   3
   3   7  -2 2.72829 0.36499   3
   3   7  -2 2.37279 0.57489   2
   3   7  -2 2.14789 0.39722   3
  -2  -7   2 12.9305 0.68900   3
  -2  -7   2 12.7601 0.71012   3
   2   7  -2 11.8081 0.62839   3
   2   7  -2 13.8102 1.07429   2
   1  -7  -2 87.1031 2.88452   3
   1  -7  -2 85.4026 3.69462   2
  -1  -7   2 84.1336 3.05836   3
   1   7  -2 87.5991 2.97109   3
   1   7  -2 73.9814 3.54973   2
   0  -7  -2 234.226 7.83373   2
   0  -7   2 198.413 7.05288   3
   0  -7  -2 197.520 6.94423   3
   0  -7   2 197.930 7.00002   3
   0   7  -2 203.789 7.75373   2
   0   7  -2 192.059 6.93564   3
  -1  -7  -2 0.59291 0.39107   2
   1  -7   2 0.50344 0.17370   3
  -1  -7  -2 0.26306 0.13949   3
   1   7   2 0.31263 0.15565   3
  -1   7  -2 -0.0035 0.27105   2
   2  -7   2 16.5703 0.70205   3
  -2  -7  -2 16.3767 0.74797   3
  -2  -7  -2 15.3096 1.14896   2
  -2  -7  -2 15.9314 0.79769   3
  -2   7  -2 12.6661 1.16408   2
   2   7   2 17.1229 0.75936   3
  -3  -7  -2 9.99514 0.66284   3
  -3  -7  -2 8.44281 1.07922   2
  -3  -7  -2 10.0909 0.60412   3
  -3   7  -2 12.0427 1.13902   2
   3   7   2 10.2142 0.64057   3
  -4  -7  -2 0.93318 0.28922   3
  -4  -7  -2 0.89780 0.36236   3
   4  -7   2 0.76371 0.25794   3
  -4  -7  -2 0.90710 0.44949   2
   4   7   2 0.21986 0.31202   3
  -4   7  -2 0.66446 0.50931   2
  -5  -7  -2 2.62855 0.45379   3
   5  -7   2 2.60331 0.39367   3
  -5   7  -2 2.92371 0.80323   2
  -6  -7  -2 3.50659 0.55357   3
  -6   7  -2 4.06548 0.94783   2
  -7  -7  -2 1.96919 0.56284   3
  -8  -7  -2 92.3677 3.74601   3
   8  -8  -2 2.19903 0.66759   3
  -8  -8   2 0.92355 0.68658   3
   8   8  -2 2.27539 0.79938   3
   7  -8  -2 3.04811 0.54177   3
  -7  -8   2 1.74349 0.54530   3
   7   8  -2 2.77118 0.59491   3
   6  -8  -2 35.2447 1.45521   3
  -6  -8   2 34.5765 1.61793   3
   6  -8  -2 30.7111 2.35908   2
   6  -8  -2 32.7661 1.52898   3
   6   8  -2 34.6115 1.64561   3
   6   8  -2 32.9361 1.83771   2
  -5  -8   2 0.71687 0.37885   3
   5  -8  -2 0.58563 0.81771   2
   5  -8  -2 0.02643 0.30474   3
   5  -8  -2 0.16994 0.22795   3
   5   8  -2 0.53594 0.31448   3
   5   8  -2 0.47764 0.47117   2
   4  -8  -2 177.930 7.49903   2
   4  -8  -2 192.707 6.50425   3
   4  -8  -2 190.819 6.48876   3
  -4  -8   2 194.025 6.73314   3
  -4  -8   2 191.808 6.72626   3
   4   8  -2 191.197 6.76725   3
   4   8  -2 196.791 6.70376   3
   4   8  -2 174.689 7.21227   2
   3  -8  -2 -0.0239 0.52278   2
  -3  -8   2 0.19261 0.25928   3
  -3  -8   2 -0.1836 0.27051   3
   3   8  -2 0.01706 0.20765   3
   3   8  -2 -0.1388 0.32700   2
   3   8  -2 -0.3089 0.32449   3
   2  -8  -2 5.73308 0.91909   2
  -2  -8   2 6.10830 0.51270   3
  -2  -8   2 6.57290 0.50508   3
   2   8  -2 7.11838 0.87124   2
   2   8  -2 5.94433 0.60887   3
   2   8  -2 6.48909 0.43480   3
  -1  -8   2 4.24309 0.42372   3
  -1  -8   2 4.68855 0.39905   3
   1  -8  -2 4.64679 0.78965   2
   1  -8  -2 4.75243 0.25494   3
   1   8  -2 3.23538 0.66942   2
   1   8  -2 4.45560 0.31796   3
   0  -8   2 6.21172 0.41102   3
   0  -8   2 5.77300 0.45097   3
   0  -8  -2 5.98404 0.84747   2
   0  -8  -2 5.70120 0.33647   3
   0   8  -2 6.61900 0.84516   2
  -1  -8  -2 38.5101 2.13275   2
   1  -8   2 42.0092 1.50293   3
  -1  -8  -2 40.6067 1.50350   3
  -1  -8  -2 35.6015 1.66713   3
   1   8   2 39.9075 1.46286   3
  -2  -8  -2 30.6909 1.30457   3
   2  -8   2 30.0661 1.19556   3
  -2  -8  -2 29.9301 1.24648   3
  -2  -8  -2 34.5978 1.87976   2
  -2   8  -2 28.0385 1.89314   2
   2   8   2 30.3623 1.25112   3
  -3  -8  -2 135.591 4.92687   3
  -3  -8  -2 139.369 5.46320   2
  -3  -8  -2 141.273 4.88903   3
   3  -8   2 133.232 4.83884   3
  -3   8  -2 131.107 5.71854   2
   3   8   2 141.668 4.90002   3
  -4  -8  -2 90.0185 3.34302   3
   4  -8   2 90.5419 3.22261   3
  -4  -8  -2 85.3531 3.78987   2
  -4  -8  -2 84.2751 3.39354   3
   4   8   2 86.2963 3.36806   3
  -4   8  -2 101.382 4.24370   2
   5  -8   2 25.5878 1.13191   3
  -5  -8  -2 22.9496 1.37074   3
  -5   8  -2 25.5098 1.89705   2
  -6  -8  -2 2.35950 0.47047   3
  -6   8  -2 2.36341 0.92289   2
  -7  -8  -2 11.1066 1.02207   3
  -8  -8  -2 1.09841 0.87333   3
  -8  -9   2 10.3847 1.38765   3
   8  -9  -2 12.8251 1.15427   3
   8   9  -2 11.8589 1.42083   3
   7  -9  -2 11.4981 0.86883   3
  -7  -9   2 9.35734 0.99242   3
   7   9  -2 12.2332 1.11744   3
   6  -9  -2 2.51409 0.53182   3
  -6  -9   2 3.71010 0.59567   3
   6  -9  -2 3.83724 0.48962   3
   6   9  -2 3.48246 0.54605   3
   6   9  -2 3.46887 0.79038   2
   5  -9  -2 287.398 9.54976   3
   5  -9  -2 249.729 10.6893   2
  -5  -9   2 235.013 9.95593   3
   5  -9  -2 293.250 9.58093   3
   5   9  -2 306.386 10.4789   2
   5   9  -2 295.775 9.80433   3
   4  -9  -2 11.4582 0.56279   3
  -4  -9   2 11.1951 0.78703   3
  -4  -9   2 10.7538 0.86158   3
   4  -9  -2 10.5091 1.43546   2
   4  -9  -2 11.1705 0.59209   3
   4   9  -2 11.6320 1.16607   2
   4   9  -2 11.4534 0.90615   3
   4   9  -2 11.6239 0.76495   3
  -3  -9   2 15.5990 0.87711   3
   3  -9  -2 13.3655 1.42282   2
  -3  -9   2 15.2660 0.87818   3
   3   9  -2 13.8998 1.26635   2
   3   9  -2 14.5899 0.91898   3
   3   9  -2 15.9351 0.81662   3
  -2  -9   2 58.3048 2.22774   3
  -2  -9   2 58.8726 2.20245   3
   2   9  -2 62.2613 2.14440   3
   2   9  -2 54.3722 2.30348   3
   2   9  -2 48.8571 2.78366   2
   1  -9  -2 30.1270 1.13573   3
  -1  -9   2 31.1043 1.28697   3
  -1  -9   2 29.2952 1.31900   3
   1  -9  -2 35.5306 2.08133   2
   1   9  -2 30.5265 1.19903   3
   0  -9  -2 3.55825 0.76892   2
   0  -9   2 2.70550 0.35193   3
   0  -9  -2 2.65657 0.25217   3
   0   9  -2 3.40877 0.73579   2
  -1  -9  -2 23.2699 1.03665   3
   1  -9   2 23.7167 0.97851   3
  -1  -9  -2 20.1698 1.57369   2
  -1  -9  -2 23.6333 0.98192   3
  -1   9  -2 27.3387 1.81341   2
  -2  -9  -2 144.763 5.31727   3
   2  -9   2 149.578 5.25461   3
  -2  -9  -2 145.486 5.36052   3
  -2  -9  -2 161.890 6.17967   2
   2   9   2 147.509 5.29907   3
  -2   9  -2 161.007 6.39514   2
  -3  -9  -2 479.888 16.2071   3
   3  -9   2 478.683 16.0912   3
  -3  -9  -2 503.430 16.9579   2
  -3  -9  -2 474.810 16.2579   3
   3   9   2 475.827 16.2101   3
  -3   9  -2 433.654 17.1713   2
   4  -9   2 29.4637 1.20620   3
  -4  -9  -2 27.4940 1.74786   2
  -4  -9  -2 28.5410 1.31015   3
  -4   9  -2 29.8146 2.06694   2
   4   9   2 27.4236 1.37993   3
  -5  -9  -2 3.45281 0.48180   3
   5  -9   2 4.20840 0.55808   3
  -5   9  -2 5.45104 1.18875   2
  -6  -9  -2 1.48941 0.49222   3
  -6   9  -2 1.85806 0.95015   2
  -7  -9  -2 0.01622 0.63134   3
   7 -10  -2 -0.1901 0.45383   3
  -7 -10   2 -0.1145 0.60661   3
   7  10  -2 0.17751 0.64578   3
  -6 -10   2 1.56465 0.57290   3
   6 -10  -2 1.21584 0.37797   3
   6  10  -2 0.74495 0.68595   2
   6  10  -2 1.15170 0.49892   3
   5 -10  -2 36.2698 1.52015   3
   5 -10  -2 36.7676 1.45816   3
  -5 -10   2 38.0447 1.74273   3
   5  10  -2 38.2119 1.71295   3
   5  10  -2 36.8657 2.24721   2
  -4 -10   2 72.6405 2.95281   3
   4  10  -2 71.2556 3.00644   3
   4  10  -2 75.0615 2.90770   3
   4  10  -2 82.4541 3.72598   2
   3 -10  -2 2.03082 0.94788   2
  -3 -10   2 2.57036 0.43235   3
  -3 -10   2 2.39724 0.43404   3
   3  10  -2 2.12275 0.77156   2
   3  10  -2 2.43157 0.37600   3
   3  10  -2 1.21054 0.43375   3
   2 -10  -2 66.0526 3.49896   2
  -2 -10   2 66.6630 2.62204   3
  -2 -10   2 68.2603 2.60079   3
   2  10  -2 71.2372 2.52286   3
  -1 -10   2 41.4700 1.72484   3
  -1 -10   2 43.7429 1.68972   3
   1 -10  -2 47.2759 2.61568   2
   1  10  -2 35.4950 2.36230   2
   1  10  -2 44.0582 1.57196   3
   0 -10   2 4.10104 0.41923   3
   0 -10  -2 5.04534 0.33587   3
   0 -10  -2 4.41861 0.92181   2
   0 -10   2 4.68835 0.44680   3
   0  10  -2 3.86670 0.83046   2
  -1 -10  -2 217.296 9.13980   2
  -1 -10  -2 239.990 8.26674   3
   1 -10   2 246.325 8.21850   3
  -1 -10  -2 234.057 8.21312   3
   1 -10   2 235.072 8.25799   3
  -1  10  -2 261.374 9.50826   2
  -2 -10  -2 11.0668 0.64899   3
  -2 -10  -2 11.1373 0.71147   3
   2 -10   2 11.5173 0.60725   3
  -2 -10  -2 10.6060 1.27893   2
  -2  10  -2 12.9443 1.40691   2
   2  10   2 11.0574 0.65181   3
   3 -10   2 4.60898 0.42714   3
  -3 -10  -2 3.57546 0.47238   3
  -3 -10  -2 4.34607 0.59853   3
  -3 -10  -2 5.38769 1.04251   2
   3  10   2 4.43258 0.52246   3
  -3  10  -2 4.75942 1.01889   2
   4 -10   2 5.23026 0.50908   3
  -4 -10  -2 5.33911 0.57346   3
  -4 -10  -2 5.11059 1.07369   2
  -4  10  -2 5.26302 1.12239   2
   4  10   2 4.93691 0.62746   3
   5 -10   2 8.86975 0.69440   3
  -5 -10  -2 9.85167 0.80262   3
  -5  10  -2 10.7606 1.50738   2
  -6 -10  -2 0.12363 0.53598   3
  -6  10  -2 1.50360 1.02648   2
  -7 -10  -2 41.2719 2.03940   3
  -7 -11   2 24.4213 1.53613   3
   7  11  -2 24.4388 1.64022   3
   6 -11  -2 8.21948 0.66549   3
  -6 -11   2 7.63392 0.92955   3
   6  11  -2 8.06333 1.33185   2
   6  11  -2 8.69634 0.98481   3
  -5 -11   2 -0.1231 0.39175   3
   5 -11  -2 0.18509 0.36919   3
   5 -11  -2 0.00695 0.24194   3
   5  11  -2 0.13603 0.66436   2
  -4 -11   2 4.01463 0.54300   3
   4  11  -2 4.86732 0.58662   3
   4  11  -2 3.94952 0.67384   3
   4  11  -2 3.59745 0.95054   2
  -3 -11   2 379.388 12.9735   3
  -3 -11   2 373.826 12.9814   3
   3  11  -2 380.057 14.0004   2
   3  11  -2 362.787 12.8667   3
   3  11  -2 378.864 12.9568   3
  -2 -11   2 53.5216 2.15868   3
   2 -11  -2 53.6920 3.17150   2
  -2 -11   2 53.5568 2.18937   3
   2  11  -2 56.8416 3.07226   2
   2  11  -2 53.9900 2.04721   3
  -1 -11   2 -0.0806 0.26847   3
  -1 -11   2 0.08104 0.24780   3
   1 -11  -2 0.28482 0.14656   3
   1 -11  -2 -0.3792 0.69164   2
   1  11  -2 0.45390 0.51068   2
   0 -11   2 33.0500 1.40770   3
   0 -11  -2 32.5176 1.28135   3
   0 -11   2 33.9614 1.37088   3
   1 -11   2 224.210 7.79729   3
  -1 -11  -2 229.691 7.75562   3
   1 -11   2 234.727 7.74698   3
  -1 -11  -2 223.954 7.79441   3
  -1  11  -2 209.535 8.94745   2
  -2 -11  -2 47.3044 1.95026   3
  -2 -11  -2 49.9294 2.80078   2
   2 -11   2 44.6192 1.93760   3
  -2 -11  -2 51.5562 1.91667   3
   2  11   2 49.1676 1.83893   3
  -2  11  -2 46.7474 2.90023   2
  -3 -11  -2 27.5587 1.26022   3
  -3 -11  -2 24.9893 1.96313   2
  -3 -11  -2 26.4911 1.34948   3
   3 -11   2 27.3573 1.14708   3
  -3  11  -2 31.2641 2.24500   2
   3  11   2 27.3746 1.29326   3
   4 -11   2 15.7699 0.79309   3
  -4 -11  -2 13.5622 1.22502   3
  -4 -11  -2 14.2616 1.51133   2
  -4  11  -2 14.1337 1.66748   2
   4  11   2 13.6132 1.04478   3
  -5 -11  -2 39.2291 1.81814   3
   5 -11   2 39.4342 1.65171   3
  -5  11  -2 40.7782 2.75562   2
  -6 -11  -2 95.6926 3.60788   3
  -6  11  -2 84.4727 6.08989   2
  -7 -11  -2 20.9323 1.54812   3
  -7 -12   2 2.95232 0.80870   3
   7  12  -2 2.93716 0.87998   3
  -6 -12   2 5.36800 0.81533   3
   6  12  -2 5.15405 1.22406   2
   6  12  -2 4.64570 0.79871   3
  -5 -12   2 0.38361 0.50399   3
   5  12  -2 1.07988 0.48317   3
   5  12  -2 0.55212 0.79450   2
  -4 -12   2 6.88082 0.71918   3
   4  12  -2 6.88565 0.81023   3
   4  12  -2 6.27928 0.68379   3
   4  12  -2 5.65920 1.13509   2
  -3 -12   2 0.36870 0.35368   3
   3  12  -2 0.56181 0.31137   3
   3  12  -2 0.78364 0.60664   2
   3  12  -2 0.30472 0.44374   3
  -2 -12   2 91.6165 3.44334   3
  -2 -12   2 95.5306 3.48021   3
   2  12  -2 97.5511 3.29952   3
   2  12  -2 81.6369 4.36975   2
   1 -12  -2 23.3653 0.88876   3
  -1 -12   2 22.2312 1.10401   3
  -1 -12   2 21.8855 1.08548   3
   1  12  -2 20.9577 1.87329   2
   0 -12   2 29.8510 1.35458   3
   0 -12   2 30.9388 1.33069   3
   0 -12  -2 29.7781 2.32870   2
   0 -12  -2 31.5585 1.23472   3
   0 -12  -2 31.7761 1.29650   3
   0  12  -2 33.2742 2.32905   2
  -1 -12  -2 63.5556 2.37403   3
  -1 -12  -2 66.5876 3.53626   2
   1 -12   2 60.6268 2.41180   3
  -1 -12  -2 64.6368 2.42483   3
   1 -12   2 62.9549 2.37154   3
  -2 -12  -2 21.7885 1.92647   2
   2 -12   2 21.4822 0.97304   3
  -2 -12  -2 21.6559 1.03548   3
  -2 -12  -2 21.4872 1.10720   3
  -2  12  -2 21.5249 1.93218   2
  -3 -12  -2 11.5178 0.76038   3
  -3 -12  -2 11.4833 1.56192   2
   3 -12   2 11.3832 0.68747   3
  -3  12  -2 12.7777 1.58290   2
   3  12   2 11.9105 0.83626   3
  -4 -12  -2 8.28359 0.72143   3
   4 -12   2 6.35478 0.61660   3
  -4  12  -2 5.99843 1.37946   2
   4  12   2 6.43060 0.75113   3
  -5 -12  -2 1.65197 0.50940   3
  -5  12  -2 1.18793 1.01002   2
  -6 -12  -2 10.3911 1.06765   3
  -6  12  -2 11.9916 2.18704   2
  -6 -13   2 13.5979 1.23152   3
   6  13  -2 13.2645 1.34989   3
   6  13  -2 13.8335 1.85551   2
  -5 -13   2 14.5965 1.14132   3
   5  13  -2 11.3561 1.68743   2
   5  13  -2 12.9039 1.06289   3
  -4 -13   2 1.51104 0.50574   3
   4  13  -2 1.42789 0.47118   3
   4  13  -2 2.06012 0.92591   2
   4  13  -2 1.38148 0.68563   3
  -3 -13   2 3.18365 0.50530   3
   3  13  -2 2.83114 0.90224   2
   3  13  -2 2.65965 0.42309   3
  -2 -13   2 65.9281 2.60128   3
  -2 -13   2 64.6609 2.59764   3
   2  13  -2 65.0935 3.64327   2
   1 -13  -2 0.12561 0.25442   3
   1 -13  -2 0.21136 0.17315   3
  -1 -13   2 0.22834 0.35842   3
  -1 -13   2 -0.1067 0.31192   3
   1  13  -2 1.24273 0.67973   2
   0 -13   2 23.7815 1.08946   3
   0 -13  -2 22.0643 1.02044   3
   0 -13   2 21.9094 1.09025   3
   0 -13  -2 22.5302 0.95650   3
   0  13  -2 19.7619 1.91660   2
   1 -13   2 14.8622 0.83077   3
  -1 -13  -2 15.9203 0.86768   3
  -1 -13  -2 15.1944 0.78471   3
   1 -13   2 15.1817 0.86284   3
  -1  13  -2 13.0386 1.61021   2
   2 -13   2 -0.3776 0.29234   3
  -2 -13  -2 0.49694 0.42103   3
   2 -13   2 0.39875 0.31797   3
  -2 -13  -2 0.27998 0.29575   3
  -2  13  -2 0.63099 0.68375   2
   3 -13   2 0.06916 0.32950   3
  -3 -13  -2 -0.3217 0.33286   3
  -3  13  -2 -0.4706 0.67738   2
   3  13   2 0.50266 0.65518   3
   4 -13   2 95.4397 3.66316   3
  -4 -13  -2 90.4754 3.64582   3
  -4  13  -2 102.072 5.05661   2
  -5 -13  -2 3.07093 0.60024   3
  -5  13  -2 4.65550 1.39465   2
  -6 -13  -2 21.6394 1.43010   3
  -6 -14   2 36.0873 2.01073   3
   6  14  -2 40.1559 2.14689   3
  -5 -14   2 97.0781 3.86641   3
   5  14  -2 93.4824 4.86299   2
   5  14  -2 99.1995 3.79823   3
  -4 -14   2 0.33493 0.52998   3
   4  14  -2 -0.1969 0.90910   2
   3  14  -2 1.05757 0.91670   2
  -2 -14   2 0.19726 0.38743   3
   2  14  -2 0.13732 0.80741   2
  -1 -14   2 1.31449 0.45331   3
  -1 -14   2 1.75944 0.42304   3
   1 -14  -2 1.73721 0.25991   3
   0 -14  -2 59.4958 2.28862   3
   0 -14   2 58.7759 2.34032   3
   0 -14   2 61.1983 2.38387   3
   0 -14  -2 60.4434 2.23273   3
   1 -14   2 80.9423 3.06790   3
  -1 -14  -2 81.6531 3.01915   3
  -1 -14  -2 81.4592 3.07374   3
   1 -14   2 82.0706 3.03264   3
  -1  14  -2 81.9392 4.42226   2
  -2 -14  -2 16.1623 0.92718   3
  -2 -14  -2 14.7069 1.19150   3
   2 -14   2 16.9525 0.90004   3
   2 -14   2 16.2249 0.94307   3
  -2  14  -2 19.1723 1.95791   2
   3 -14   2 49.6219 2.05236   3
  -3  14  -2 58.5490 3.60388   2
  -4 -14  -2 1.34277 0.54121   3
  -4  14  -2 1.22771 1.16878   2
  -5 -14  -2 8.06528 0.97379   3
  -5  14  -2 10.1399 2.08777   2
  -5 -15   2 3.87789 0.74743   3
   5  15  -2 4.60161 1.48451   2
  -4 -15   2 1.99103 0.69896   3
   4  15  -2 2.96370 1.26468   2
  -3 -15   2 19.5730 1.22704   3
   3  15  -2 17.3790 2.04000   2
  -2 -15   2 45.0086 2.00897   3
   2  15  -2 45.6194 3.13261   2
  -1 -15   2 13.6209 1.02973   3
   1 -15  -2 14.3156 0.81901   3
   1 -15  -2 14.8077 0.71522   3
  -1 -15   2 16.2222 0.99734   3
   1  15  -2 16.8289 1.91535   2
   0 -15   2 0.23596 0.43916   3
   0 -15   2 0.25722 0.40557   3
   0 -15  -2 0.01495 0.27022   3
   0 -15  -2 0.04387 0.38315   3
   0  15  -2 0.97829 0.89158   2
  -1 -15  -2 1.93313 0.51869   3
  -1 -15  -2 1.54246 0.38759   3
   1 -15   2 1.49730 0.49114   3
   1 -15   2 1.14250 0.43145   3
  -1  15  -2 2.30145 1.00580   2
  -2 -15  -2 8.66540 0.72395   3
   2 -15   2 6.50326 0.82940   3
   2 -15   2 6.13176 0.73892   3
  -2  15  -2 7.60760 1.63746   2
  -3 -15  -2 103.185 3.70133   3
   3 -15   2 100.522 3.60266   3
  -3  15  -2 85.0159 5.07642   2
  -4 -15  -2 81.8582 3.40347   3
  -4  15  -2 91.1811 4.99584   2
  -5 -15  -2 3.47034 0.76823   3
  -5  15  -2 5.23349 1.82175   2
  -5 -16   2 63.9277 2.86122   3
   5  16  -2 62.9214 4.00124   2
  -4 -16   2 48.5169 2.35453   3
   4  16  -2 52.6991 3.61416   2
  -3 -16   2 1.54482 0.65714   3
   3  16  -2 1.70653 1.13847   2
   2  16  -2 3.54658 1.28003   2
   1 -16  -2 0.97388 0.28830   3
  -1 -16   2 1.46380 0.51873   3
   1  16  -2 2.06144 1.21164   2
   0 -16   2 20.9340 1.23803   3
   0 -16  -2 21.2231 1.02650   3
   0 -16   2 21.5035 1.22001   3
   0  16  -2 23.0791 2.33776   2
  -1 -16  -2 13.2098 1.04273   3
  -1 -16  -2 14.1715 0.85403   3
   1 -16   2 11.6722 0.93148   3
  -1  16  -2 11.4507 1.91469   2
   2 -16   2 12.8352 0.96098   3
  -2 -16  -2 14.1930 0.94745   3
  -2  16  -2 13.1824 2.21538   2
  -3 -16  -2 5.15659 0.74098   3
  -3  16  -2 2.91856 1.42547   2
  -4 -16  -2 21.3859 1.38707   3
  -4  16  -2 19.2318 2.57004   2
  -4 -17   2 12.6252 1.35223   3
   4  17  -2 14.1744 2.46582   2
  -3 -17   2 0.21495 0.68609   3
   3  17  -2 0.87897 1.29109   2
  -2 -17   2 14.7299 1.17867   3
   2  17  -2 12.1623 2.17265   2
  -1 -17   2 1.28669 0.58837   3
   1  17  -2 1.25086 1.25927   2
   0 -17  -2 13.4800 0.85090   3
   0 -17   2 14.4340 1.03193   3
   0  17  -2 12.3134 2.07837   2
  -1 -17  -2 2.07049 0.47988   3
   1 -17   2 2.05910 0.57764   3
  -1  17  -2 2.27446 1.39096   2
  -2 -17  -2 1.21199 0.56942   3
  -2  17  -2 1.92314 1.38882   2
  -3 -17  -2 26.4058 1.53868   3
  -3  17  -2 27.4111 2.96408   2
  -4  17  -2 1.63553 1.59528   2
  -3 -18   2 -0.3291 0.78483   3
   3  18  -2 -0.3802 1.33562   2
  -2 -18   2 2.96478 0.83615   3
   2  18  -2 2.74012 1.47234   2
  -1 -18   2 9.82132 1.07744   3
   1  18  -2 10.0856 2.09826   2
   0 -18   2 4.77434 0.74569   3
   0  18  -2 5.77437 1.66212   2
  -1 -18  -2 2.24310 0.59621   3
  -1  18  -2 5.68801 1.69417   2
  -2 -18  -2 3.84496 0.73314   3
  -2  18  -2 3.56892 1.60469   2
  -1 -19   2 -0.2810 0.77482   3
   1  19  -2 -0.2727 1.55593   2
   0  19  -2 23.2806 2.91333   2
  -1  19  -2 -0.1095 1.69539   2
   9   0  -3 0.50893 0.77049   3
  -9   0   3 -0.6205 0.72179   3
  -8   0   3 -0.1514 0.46779   3
   8   0  -3 0.33584 0.56027   3
  -7   0   3 -0.6884 0.51998   3
  -7   0   3 0.10550 0.35093   3
   7   0  -3 0.38920 0.37110   3
  -6   0   3 0.05155 0.27488   3
  -6   0   3 0.37712 0.41513   3
   6   0  -3 0.20655 0.26367   3
  -5   0   3 -0.1367 0.30367   3
   5   0  -3 0.01974 0.24657   3
  -5   0   3 -0.1010 0.22653   3
   5   0  -3 -0.1904 0.31708   3
   4   0  -3 0.09754 0.24658   3
  -4   0   3 0.21084 0.23505   3
   4   0  -3 -0.0210 0.18239   3
  -4   0   3 0.04830 0.18102   3
  -3   0   3 0.00904 0.17053   3
   3   0  -3 0.04308 0.20298   3
   3   0  -3 0.00242 0.14953   3
  -2   0   3 -0.0324 0.14895   3
  -2   0   3 0.17834 0.17352   3
   2   0  -3 0.17860 0.20577   3
   2   0  -3 -0.1042 0.11289   3
   1   0  -3 -0.0020 0.12394   3
  -1   0   3 0.50239 0.17606   3
   1   0  -3 0.34822 0.19220   3
  -1   0   3 -0.0092 0.16124   3
   0   0  -3 -0.0614 0.12325   3
   0   0   3 0.04002 0.11991   3
  -1   0  -3 -0.1104 0.12237   3
   1   0   3 0.06549 0.13634   3
  -2   0  -3 0.00106 0.13139   3
   2   0   3 0.09493 0.14379   3
  -3   0  -3 -0.1503 0.18549   3
   3   0   3 0.00268 0.16569   3
  -3   0  -3 -0.0319 0.17337   3
  -4   0  -3 0.13567 0.28281   3
  -4   0  -3 0.10164 0.20780   3
   4   0   3 -0.0907 0.21675   3
   5   0   3 0.44377 0.33592   3
  -5   0  -3 0.53513 0.28486   3
  -5   0  -3 0.50185 0.33543   3
  -6   0  -3 -0.0896 0.34256   3
  -6   0  -3 0.52424 0.48853   3
  -7   0  -3 0.44758 0.43038   3
  -8   0  -3 -0.2183 0.71359   3
  -9  -1   3 -0.5539 0.75165   3
   9  -1  -3 0.77859 0.75084   3
   9   1  -3 -0.2582 0.71595   3
  -8  -1   3 1.20915 0.54553   3
   8  -1  -3 0.97878 0.58202   3
   8   1  -3 0.88589 0.55617   3
  -8   1   3 0.74120 0.50203   3
   7  -1  -3 29.2505 1.86811   2
   7  -1  -3 28.9398 1.49436   3
  -7  -1   3 29.6760 1.40881   3
   7   1  -3 31.0899 1.54674   3
  -7   1   3 30.4485 1.49429   3
  -7   1   3 31.9165 1.35838   3
  -6  -1   3 64.2050 2.53701   3
   6  -1  -3 68.7252 2.93709   3
   6  -1  -3 64.4332 2.59853   3
  -6  -1   3 64.7985 2.60503   3
   6   1  -3 63.8461 2.61542   3
  -6   1   3 67.2443 2.48777   3
  -6   1   3 67.1495 2.55457   3
   5  -1  -3 99.8254 3.73689   3
  -5  -1   3 98.0094 3.65704   3
   5  -1  -3 97.0619 3.66104   3
  -5  -1   3 100.529 3.63853   3
   5   1  -3 97.8000 3.68370   3
  -5   1   3 99.7723 3.57870   3
   5   1  -3 99.0305 3.76424   3
  -5   1   3 102.607 3.61761   3
  -4  -1   3 77.5648 2.88342   3
   4  -1  -3 79.8141 2.94508   3
   4  -1  -3 74.7176 2.86888   3
  -4  -1   3 75.2668 2.87337   3
   4   1  -3 78.4749 2.97132   3
  -4   1   3 79.0150 2.84274   3
   4   1  -3 77.9127 2.90471   3
  -4   1   3 79.1012 2.83098   3
   3  -1  -3 26.4241 1.15353   3
  -3  -1   3 29.1288 1.18598   3
  -3  -1   3 28.0077 1.19152   3
   3  -1  -3 27.7900 1.21202   3
  -3   1   3 28.0497 1.13821   3
   3   1  -3 28.1144 1.18098   3
   3   1  -3 28.0373 1.24110   3
  -3   1   3 28.6105 1.14730   3
   2  -1  -3 97.1389 3.55943   3
  -2  -1   3 100.372 3.57346   3
  -2  -1   3 98.3020 3.60503   3
   2  -1  -3 104.947 3.62349   3
  -2   1   3 104.756 3.54559   3
   2   1  -3 97.7189 3.72816   3
  -2   1   3 101.654 3.57157   3
   2   1  -3 100.015 3.58320   3
   1  -1  -3 52.2197 1.97296   3
   1  -1  -3 53.2422 1.92053   3
  -1  -1   3 52.5792 1.98186   3
  -1  -1   3 52.7008 1.92685   3
  -1   1   3 51.5654 1.89291   3
  -1   1   3 52.3220 1.95375   3
   1   1  -3 49.5566 1.92188   3
   1   1  -3 52.5802 1.98857   3
   0  -1   3 12.9394 0.59444   3
   0  -1  -3 12.1359 0.58604   3
   0   1  -3 12.3284 0.59598   3
   0   1   3 12.8282 0.57079   3
  -1  -1  -3 137.892 4.65135   3
   1  -1   3 132.509 4.63634   3
   1   1   3 132.453 4.62773   3
  -1   1  -3 130.321 4.64510   3
  -2  -1  -3 4.55810 0.34218   3
   2  -1   3 4.15964 0.33437   3
  -2   1  -3 3.63634 0.32696   3
   2   1   3 4.32443 0.33609   3
  -3  -1  -3 150.115 5.22497   3
  -3  -1  -3 139.407 5.25456   3
   3  -1   3 151.776 5.20694   3
  -3   1  -3 146.908 5.20824   3
  -3   1  -3 151.384 5.24882   3
   3   1   3 151.748 5.21965   3
  -4  -1  -3 80.9158 3.07880   3
   4  -1   3 79.9696 3.02504   3
  -4  -1  -3 80.7876 3.04009   3
  -4   1  -3 84.2708 3.02955   3
  -4   1  -3 84.3424 3.05849   3
   4   1   3 82.8727 3.05272   3
  -5  -1  -3 195.545 7.11368   3
  -5  -1  -3 210.104 7.10012   3
   5  -1   3 193.938 7.08312   3
  -5   1  -3 206.939 7.06368   3
  -5   1  -3 203.725 7.08875   3
   5   1   3 197.215 7.11262   3
  -6  -1  -3 0.38760 0.34162   3
  -6   1  -3 0.05268 0.44238   3
  -6   1  -3 0.25051 0.33467   3
  -7  -1  -3 8.44055 0.83592   3
  -7   1  -3 8.06588 0.82176   3
  -8  -1  -3 20.5108 1.38827   3
  -8   1  -3 16.8522 1.38576   3
   9  -2  -3 5.04999 0.96245   3
  -9  -2   3 4.42818 0.84950   3
   9   2  -3 4.04775 0.92481   3
  -8  -2   3 7.88311 0.91331   3
   8  -2  -3 6.60350 0.81666   3
  -8   2   3 6.98120 0.76275   3
   8   2  -3 6.98014 0.92769   3
   7  -2  -3 141.857 5.21990   3
  -7  -2   3 125.776 5.29665   3
   7  -2  -3 150.463 5.68696   2
  -7   2   3 142.568 4.99479   3
  -7   2   3 142.181 5.07253   3
   7   2  -3 144.094 5.28007   3
   6  -2  -3 0.09784 0.28253   3
  -6  -2   3 -0.6791 0.42125   3
  -6  -2   3 -0.2520 0.29368   3
   6  -2  -3 0.66170 0.72078   2
   6  -2  -3 0.35533 0.46520   3
  -6   2   3 -0.5861 0.34103   3
  -6   2   3 0.01214 0.26643   3
   6   2  -3 0.30874 0.30870   3
  -5  -2   3 2.26055 0.40003   3
  -5  -2   3 1.73478 0.39453   3
   5  -2  -3 2.82676 0.45992   3
   5  -2  -3 2.45256 0.35438   3
   5   2  -3 2.01114 0.48432   3
  -5   2   3 2.41336 0.31633   3
  -5   2   3 2.33097 0.35822   3
   5   2  -3 1.78391 0.34083   3
  -4  -2   3 88.1429 3.29221   3
   4  -2  -3 87.5815 3.26004   3
   4  -2  -3 90.8831 3.31877   3
  -4  -2   3 87.8132 3.29032   3
  -4   2   3 90.7718 3.19063   3
  -4   2   3 91.8390 3.20631   3
   4   2  -3 89.2868 3.37671   3
   4   2  -3 89.2817 3.30526   3
   3  -2  -3 11.1628 0.58189   3
  -3  -2   3 11.0699 0.62830   3
   3  -2  -3 11.0709 0.63823   3
  -3  -2   3 10.1995 0.62504   3
   3   2  -3 12.1052 0.70774   3
   3   2  -3 10.5867 0.59966   3
  -3   2   3 10.5656 0.54309   3
  -3   2   3 10.7978 0.54622   3
   2  -2  -3 33.6808 1.33952   3
   2  -2  -3 35.1190 1.39458   3
  -2   2   3 34.9240 1.30634   3
   2   2  -3 34.3141 1.37273   3
  -2   2   3 33.9163 1.33001   3
   2   2  -3 35.5894 1.48855   3
  -1  -2   3 69.6522 2.54280   3
   1  -2  -3 66.8838 2.45234   3
  -1  -2   3 69.5316 2.48466   3
  -1   2   3 67.9358 2.42152   3
  -1   2   3 69.2506 2.48047   3
   1   2  -3 66.9065 2.47692   3
   0  -2   3 7.79018 0.44076   3
   0  -2  -3 7.59737 0.41845   3
   0   2   3 7.24030 0.38962   3
   0   2  -3 7.63951 0.44175   3
  -1  -2  -3 0.16641 0.13141   3
   1  -2   3 0.40562 0.14914   3
   1   2   3 0.55033 0.15837   3
  -1   2  -3 0.50596 0.15735   3
  -2  -2  -3 328.457 11.3830   3
   2  -2   3 338.084 11.3682   3
   2   2   3 336.248 11.3694   3
  -2   2  -3 330.616 11.3719   3
   3  -2   3 15.2759 0.72463   3
  -3  -2  -3 14.6724 0.73168   3
  -3   2  -3 14.0472 0.70863   3
  -3   2  -3 14.5938 0.74125   3
   3   2   3 14.4850 0.72566   3
   4  -2   3 204.993 7.20047   3
  -4  -2  -3 204.588 7.22111   3
  -4  -2  -3 207.115 7.27872   3
  -4   2  -3 205.741 7.21075   3
  -4   2  -3 209.086 7.19927   3
   4   2   3 209.639 7.24702   3
   5  -2   3 4.00828 0.53594   3
  -5  -2  -3 4.21322 0.55195   3
  -5  -2  -3 4.69878 0.51006   3
  -5   2  -3 4.07624 0.55228   3
  -5   2  -3 4.86725 0.67280   2
  -5   2  -3 6.06059 0.53463   3
   5   2   3 4.45039 0.59563   3
  -6   2  -3 2.92937 0.53457   3
  -6   2  -3 2.93032 0.45958   3
  -7  -2  -3 23.8854 1.33583   3
  -7   2  -3 24.9001 1.87005   3
  -7   2  -3 23.9921 1.27695   3
  -8  -2  -3 22.5487 1.49704   3
  -8   2  -3 23.1110 1.50101   3
  -8  -3   3 0.04472 0.53040   3
   8  -3  -3 0.17781 0.57274   3
   8   3  -3 0.91462 0.50613   3
   7  -3  -3 7.70897 1.34716   2
  -7  -3   3 8.64046 0.77164   3
  -7   3   3 7.73012 0.80694   3
   7   3  -3 7.83150 0.82877   3
  -7   3   3 7.60531 0.57527   3
  -6  -3   3 25.1319 1.38088   3
   6  -3  -3 26.1332 1.38000   3
   6  -3  -3 24.5992 1.74777   2
  -6  -3   3 25.5075 1.25284   3
   6  -3  -3 25.7942 1.24280   3
   6   3  -3 25.5577 1.30156   3
  -6   3   3 26.6558 1.07508   3
   5  -3  -3 15.4334 0.89711   3
   5  -3  -3 14.7970 0.81237   3
  -5  -3   3 14.5843 0.85678   3
  -5  -3   3 14.5750 0.89159   3
   5   3  -3 13.5408 0.83955   3
  -5   3   3 14.7836 0.68346   3
  -5   3   3 14.9274 0.73752   3
   4  -3  -3 34.7166 1.42934   3
  -4  -3   3 36.2519 1.51088   3
  -4  -3   3 36.9637 1.51326   3
   4  -3  -3 34.6819 1.48396   3
  -4   3   3 35.1247 1.34965   3
   4   3  -3 33.4946 1.55387   3
  -4   3   3 34.8647 1.33316   3
   4   3  -3 35.5584 1.49625   3
   3  -3  -3 8.29017 0.48436   3
  -3  -3   3 8.75879 0.55896   3
  -3  -3   3 8.09797 0.56314   3
   3   3  -3 8.28873 0.62203   3
  -3   3   3 8.20740 0.43861   3
  -3   3   3 8.71259 0.44172   3
   3   3  -3 9.32466 0.54432   3
   2  -3  -3 76.2887 2.74423   3
   2  -3  -3 74.3434 2.69425   3
  -2  -3   3 75.8175 2.75538   3
  -2  -3   3 73.5115 2.78769   3
  -2   3   3 76.1660 2.63819   3
   2   3  -3 74.9643 2.74603   3
  -2   3   3 73.3459 2.66073   3
   2   3  -3 77.2841 2.82135   3
   1  -3  -3 7.83832 0.40823   3
  -1  -3   3 7.07344 0.50137   3
  -1  -3   3 6.86815 0.45211   3
  -1   3   3 7.26912 0.36904   3
   1   3  -3 7.10192 0.43715   3
  -1   3   3 7.54022 0.43752   3
   0  -3   3 194.838 6.73813   3
   0  -3  -3 195.835 6.71147   3
   0  -3   3 199.800 6.81483   3
   0   3   3 196.227 6.68310   3
   0   3  -3 190.841 6.73323   3
   1  -3   3 141.010 4.90701   3
  -1  -3  -3 138.941 4.90190   3
   1   3   3 141.542 4.88105   3
  -1   3  -3 142.114 4.90608   3
  -2  -3  -3 195.911 6.80163   3
   2  -3   3 197.548 6.78660   3
   2   3   3 195.333 6.79142   3
  -2   3  -3 197.647 6.78629   3
  -3  -3  -3 27.6698 1.24534   3
  -3  -3  -3 27.1326 1.18265   3
   3  -3   3 29.9201 1.17570   3
   3   3   3 27.8897 1.19241   3
  -3   3  -3 27.8388 1.21176   3
  -3   3  -3 27.1816 1.14906   3
  -4  -3  -3 151.757 5.50724   3
   4  -3   3 156.884 5.48101   3
  -4  -3  -3 154.036 5.56631   3
  -4   3  -3 159.003 5.94054   2
  -4   3  -3 155.031 5.47148   3
   4   3   3 155.745 5.53001   3
  -4   3  -3 155.632 5.46003   3
   5  -3   3 84.5192 3.18056   3
  -5  -3  -3 85.1305 3.20451   3
  -5  -3  -3 80.6643 3.25652   3
  -5   3  -3 85.6988 3.13431   3
  -5   3  -3 86.3467 3.54076   2
  -5   3  -3 87.0317 3.15271   3
  -6  -3  -3 0.67749 0.38656   3
  -6   3  -3 1.15692 0.35040   3
  -6   3  -3 0.58894 0.44173   3
  -7  -3  -3 1.59384 0.56369   3
  -7   3  -3 2.11736 0.51511   3
  -8  -3  -3 6.16681 0.86520   3
  -8  -4   3 8.74702 1.02811   3
   8  -4  -3 10.9711 1.08739   3
   7  -4  -3 12.6985 1.01236   3
   7  -4  -3 12.3201 1.59833   2
  -7  -4   3 13.7211 0.97746   3
   7   4  -3 13.8582 0.99925   3
   6  -4  -3 4.89326 1.17172   2
   6  -4  -3 5.90596 0.57953   3
  -6  -4   3 5.37417 0.63218   3
   6  -4  -3 5.94169 0.76002   3
   6   4  -3 3.57742 0.81108   3
  -6   4   3 5.27150 0.45250   3
   5  -4  -3 58.3415 2.25146   3
   5  -4  -3 58.0134 2.31073   3
   5  -4  -3 60.9945 2.92116   2
  -5  -4   3 56.6604 2.32084   3
  -5  -4   3 56.7108 2.34487   3
   5   4  -3 60.2404 2.34744   3
  -5   4   3 58.6952 2.08692   3
   5   4  -3 53.9721 2.41912   3
  -5   4   3 58.2286 2.06164   3
   4  -4  -3 0.19820 0.25672   3
   4  -4  -3 0.45511 0.19837   3
  -4  -4   3 0.17039 0.26796   3
  -4  -4   3 0.75851 0.28236   3
   4   4  -3 0.29697 0.29103   3
  -4   4   3 0.36167 0.15519   3
   4   4  -3 0.83344 0.23855   3
  -3  -4   3 154.082 5.32155   3
  -3  -4   3 146.948 5.33602   3
   3  -4  -3 148.292 5.22324   3
   3  -4  -3 150.601 5.26554   3
   3   4  -3 151.706 5.38366   3
  -3   4   3 149.424 5.11450   3
   3   4  -3 149.011 5.30158   3
   2  -4  -3 0.06572 0.18163   3
  -2  -4   3 0.15275 0.19993   3
   2  -4  -3 -0.0663 0.11998   3
  -2  -4   3 0.17696 0.19394   3
  -2   4   3 0.03988 0.09594   3
   2   4  -3 0.11484 0.14043   3
   2   4  -3 0.06050 0.23179   3
  -1  -4   3 23.8529 1.08969   3
   1  -4  -3 24.7180 0.97400   3
  -1   4   3 25.1066 0.92181   3
  -1   4   3 24.8482 0.97272   3
   1   4  -3 24.1300 1.01937   3
   0  -4   3 51.3695 2.05978   3
   0  -4   3 56.6050 2.01367   3
   0  -4  -3 55.3533 1.96790   3
   0   4   3 52.4118 2.00251   3
   0   4   3 53.6481 1.93062   3
   0   4  -3 54.4472 1.99255   3
  -1  -4  -3 92.8277 3.30137   3
   1  -4   3 93.2302 3.32504   3
   1   4   3 93.7836 3.28574   3
  -1   4  -3 92.9166 3.30218   3
   2  -4   3 34.1813 1.32724   3
  -2  -4  -3 33.8483 1.33980   3
   2   4   3 32.8713 1.33166   3
  -2   4  -3 33.2267 1.30958   3
   3  -4   3 50.5831 1.87709   3
  -3  -4  -3 48.0572 1.90499   3
   3   4   3 48.4823 1.91401   3
  -3   4  -3 49.5082 1.85301   3
  -3   4  -3 49.0623 1.85692   3
  -4  -4  -3 0.68346 0.33208   3
  -4  -4  -3 0.15299 0.22111   3
  -4  -4  -3 0.03547 0.38859   2
   4  -4   3 0.20147 0.24070   3
  -4   4  -3 0.26812 0.23798   3
   4   4   3 0.14217 0.28326   3
  -4   4  -3 0.18294 0.37478   2
  -4   4  -3 -0.1759 0.19949   3
  -5  -4  -3 3.88640 0.52605   3
   5  -4   3 4.28532 0.51695   3
  -5   4  -3 5.09524 0.52853   3
  -5   4  -3 4.46945 0.47478   3
  -5   4  -3 3.84577 0.76487   2
  -6  -4  -3 2.97117 0.49891   3
  -6   4  -3 3.91370 0.81367   2
  -6   4  -3 4.78758 0.54067   3
  -6   4  -3 4.32004 0.53989   3
  -7  -4  -3 1.50835 0.59666   3
  -7   4  -3 -0.0692 0.41543   3
  -8  -4  -3 2.91524 0.72747   3
   8  -5  -3 3.27181 0.72838   3
  -8  -5   3 4.46849 0.76136   3
   8   5  -3 1.73149 0.64471   3
   7  -5  -3 28.7367 2.33145   2
   7  -5  -3 26.7091 1.38033   3
  -7  -5   3 27.5250 1.45085   3
   7   5  -3 26.9365 1.49072   3
  -6  -5   3 1.12523 0.46277   3
   6  -5  -3 1.74458 0.50369   3
   6  -5  -3 1.01174 0.81912   2
   6  -5  -3 1.99388 0.37682   3
   6   5  -3 1.21391 0.36607   3
   5  -5  -3 6.52129 0.65783   3
  -5  -5   3 7.16218 0.73763   3
   5  -5  -3 7.69283 0.55322   3
  -5  -5   3 8.01192 0.66976   3
   5  -5  -3 7.00475 1.10778   2
   5   5  -3 7.06724 0.61864   3
   5   5  -3 7.95570 0.81221   3
   4  -5  -3 23.7189 1.03715   3
   4  -5  -3 25.2542 1.10986   3
   4  -5  -3 24.3681 1.67492   2
  -4  -5   3 23.4823 1.16982   3
  -4  -5   3 24.7158 1.18070   3
   4   5  -3 22.6490 1.22852   3
   4   5  -3 23.9700 1.14009   3
   3  -5  -3 5.63210 0.39996   3
   3  -5  -3 6.15501 0.46534   3
  -3  -5   3 6.62487 0.52457   3
  -3  -5   3 6.73436 0.53824   3
   3   5  -3 5.57627 0.57452   3
   3   5  -3 6.28115 0.47861   3
   2  -5  -3 0.09621 0.13126   3
   2  -5  -3 0.11643 0.19196   3
  -2  -5   3 0.52303 0.23849   3
  -2  -5   3 0.19690 0.20475   3
   2   5  -3 -0.0027 0.15752   3
   2   5  -3 -0.2568 0.22879   3
   1  -5  -3 1.47975 0.20120   3
  -1  -5   3 1.82252 0.31019   3
  -1  -5   3 1.67052 0.26347   3
  -1   5   3 1.83747 0.16228   3
  -1   5   3 1.43186 0.18984   3
   1   5  -3 1.67099 0.23305   3
   0  -5  -3 2.51313 0.24447   3
   0  -5   3 2.11157 0.30597   3
   0   5  -3 2.29249 0.25620   3
   0   5   3 2.16910 0.26388   3
   0   5   3 2.03060 0.21493   3
  -1  -5  -3 6.83334 0.40439   3
   1   5   3 6.69037 0.39896   3
  -1   5  -3 6.02520 0.38413   3
   2  -5   3 18.9775 0.83130   3
  -2  -5  -3 17.3750 0.82434   3
   2   5   3 18.0750 0.83387   3
  -2   5  -3 18.4681 0.79407   3
  -2   5  -3 18.6306 0.80789   3
  -3  -5  -3 17.7909 0.94689   3
  -3  -5  -3 19.4394 1.23476   2
   3  -5   3 18.7239 0.85327   3
  -3  -5  -3 19.0754 0.89108   3
   3   5   3 17.9830 0.89603   3
  -3   5  -3 18.2164 1.32406   2
  -3   5  -3 18.0953 0.81086   3
  -3   5  -3 17.8702 0.80388   3
  -4  -5  -3 16.7594 1.11117   2
  -4  -5  -3 14.4411 0.93709   3
   4  -5   3 16.3073 0.83632   3
  -4  -5  -3 16.8994 0.87833   3
   4   5   3 15.8067 0.89798   3
  -4   5  -3 17.4978 1.32585   2
  -4   5  -3 16.8893 0.77607   3
  -4   5  -3 17.0393 0.79120   3
  -5  -5  -3 31.8906 1.46297   3
   5  -5   3 31.7673 1.42098   3
  -5   5  -3 31.0113 1.32132   3
  -5   5  -3 33.1053 1.35501   3
  -5   5  -3 33.6761 1.94933   2
  -6  -5  -3 48.8712 2.13717   3
  -6   5  -3 50.9948 1.96632   3
  -6   5  -3 51.6529 2.53001   2
  -6   5  -3 51.6660 1.99121   3
  -7  -5  -3 0.37883 0.51415   3
  -7   5  -3 1.27581 0.44287   3
  -8  -5  -3 5.43623 0.82273   3
   8  -6  -3 21.5962 1.38395   3
  -8  -6   3 20.2231 1.38454   3
   8   6  -3 18.1532 1.40506   3
   7  -6  -3 6.24354 0.71969   3
  -7  -6   3 6.73119 0.83049   3
   7   6  -3 4.72226 0.68249   3
   6  -6  -3 44.4178 1.83152   3
   6  -6  -3 41.7953 1.91640   3
   6  -6  -3 46.1947 2.68999   2
  -6  -6   3 43.7202 1.94515   3
   6   6  -3 44.5974 1.96132   3
   6   6  -3 42.7959 2.23296   2
   5  -6  -3 7.48787 0.66959   3
  -5  -6   3 6.99538 0.66879   3
   5  -6  -3 8.77695 1.25943   2
   5  -6  -3 6.65158 0.53381   3
   5   6  -3 7.33739 0.64130   3
  -4  -6   3 1.00418 0.35319   3
   4  -6  -3 1.35348 0.32993   3
  -4  -6   3 0.65843 0.30881   3
   4  -6  -3 0.77954 0.22159   3
   4  -6  -3 1.82554 0.69509   2
   4   6  -3 0.84645 0.26234   3
   4   6  -3 0.16307 0.35674   3
  -3  -6   3 2.02667 0.37367   3
   3  -6  -3 1.43628 0.23114   3
   3  -6  -3 1.18446 0.26703   3
  -3  -6   3 1.84514 0.37840   3
   3  -6  -3 1.73108 0.62223   2
   3   6  -3 1.52747 0.30324   3
   3   6  -3 1.01362 0.35814   3
  -2  -6   3 35.2693 1.51997   3
  -2  -6   3 36.1841 1.48498   3
   2  -6  -3 36.1972 1.41063   3
   2  -6  -3 36.1339 1.35580   3
   2   6  -3 35.7979 1.44975   3
   2   6  -3 36.0966 1.53310   3
   1  -6  -3 99.7939 3.49753   3
  -1  -6   3 99.0279 3.65845   3
  -1  -6   3 103.166 3.60591   3
   1   6  -3 98.9296 3.56277   3
   0  -6   3 32.6776 1.40758   3
   0  -6  -3 33.3651 1.28710   3
   0  -6   3 34.1575 1.35682   3
   0   6   3 35.3459 1.25070   3
   0   6  -3 33.2383 1.30552   3
   0   6   3 33.5786 1.29387   3
  -1  -6  -3 19.7249 0.84997   3
   1  -6   3 19.7667 0.88035   3
  -1   6  -3 20.1472 0.82692   3
   1   6   3 19.2754 0.83322   3
   2  -6   3 0.06617 0.18558   3
  -2  -6  -3 0.13536 0.16114   3
  -2  -6  -3 0.16543 0.41868   2
  -2  -6  -3 -0.0162 0.22176   3
  -2   6  -3 0.27776 0.14246   3
   2   6   3 0.35020 0.18768   3
  -2   6  -3 0.31664 0.16746   3
  -3  -6  -3 0.61960 0.28293   3
   3  -6   3 0.54553 0.21931   3
  -3  -6  -3 -0.1844 0.20983   3
  -3  -6  -3 0.22125 0.43387   2
  -3   6  -3 0.39511 0.18594   3
  -3   6  -3 0.10441 0.17510   3
  -3   6  -3 0.59010 0.46848   2
   3   6   3 0.20210 0.23246   3
   4  -6   3 29.2656 1.24956   3
  -4  -6  -3 28.9588 1.39506   3
  -4  -6  -3 29.1042 1.59917   2
  -4  -6  -3 30.2916 1.29811   3
  -4   6  -3 24.5140 1.76821   2
  -4   6  -3 30.1099 1.14433   3
   4   6   3 27.9682 1.32787   3
  -4   6  -3 28.9337 1.14073   3
   5  -6   3 6.11220 0.63514   3
  -5   6  -3 6.92629 0.46551   3
  -5   6  -3 7.74718 1.05989   2
  -5   6  -3 7.55715 0.50970   3
  -6  -6  -3 48.1421 2.14309   3
  -6   6  -3 51.8608 2.65589   2
  -7  -6  -3 48.7499 2.18922   3
  -8  -6  -3 54.0163 2.53519   3
   8  -7  -3 18.1115 1.33999   3
  -8  -7   3 17.6240 1.39664   3
   8   7  -3 19.0793 1.42210   3
  -7  -7   3 -1.2075 0.45665   3
   7  -7  -3 -0.1284 0.44835   3
   7   7  -3 0.43333 0.52741   3
   6  -7  -3 0.65541 0.51064   3
   6  -7  -3 0.89524 0.37512   3
  -6  -7   3 0.99767 0.47571   3
   6  -7  -3 -0.0933 0.98119   2
   6   7  -3 1.32208 0.64869   2
   6   7  -3 1.57657 0.42884   3
   5  -7  -3 17.8248 1.69513   2
   5  -7  -3 17.3483 0.88505   3
   5  -7  -3 18.8724 1.00309   3
  -5  -7   3 18.5522 1.05574   3
   5   7  -3 18.3142 1.03404   3
  -4  -7   3 1.47764 0.35810   3
   4  -7  -3 0.94633 0.31815   3
   4  -7  -3 1.36246 0.24821   3
  -4  -7   3 1.13179 0.42072   3
   4  -7  -3 1.23099 0.65438   2
   4   7  -3 0.83490 0.43412   3
   4   7  -3 1.91553 0.36764   3
  -3  -7   3 28.1778 1.31651   3
   3  -7  -3 26.6741 1.89104   2
   3  -7  -3 30.0911 1.21256   3
  -3  -7   3 30.2439 1.36171   3
   3  -7  -3 29.5601 1.15855   3
   3   7  -3 29.4307 1.39053   3
   3   7  -3 30.2426 1.29148   3
  -2  -7   3 127.241 4.65383   3
   2  -7  -3 127.180 4.50473   3
   2  -7  -3 129.948 5.36628   2
  -2  -7   3 128.193 4.60287   3
   2  -7  -3 130.208 4.45696   3
   2   7  -3 128.643 4.64413   3
   2   7  -3 128.658 4.56312   3
   1  -7  -3 54.1590 1.99705   3
  -1  -7   3 57.6082 2.12503   3
   1  -7  -3 56.8847 2.80264   2
  -1  -7   3 55.3519 2.17715   3
   1   7  -3 53.5924 2.06168   3
   0  -7   3 122.402 4.23576   3
   0  -7   3 116.436 4.29092   3
   0  -7  -3 119.808 4.94164   2
   0  -7  -3 118.722 4.15673   3
   0   7  -3 119.054 4.16778   3
   0   7   3 118.965 4.09155   3
  -1  -7  -3 4.13465 0.33762   3
  -1  -7  -3 4.78925 0.82007   2
   1  -7   3 4.47484 0.40041   3
  -1   7  -3 4.52671 0.30735   3
   1   7   3 4.15759 0.33954   3
   2  -7   3 29.7461 1.23052   3
  -2  -7  -3 30.8265 1.79818   2
  -2  -7  -3 29.2551 1.32335   3
  -2  -7  -3 29.7851 1.24298   3
  -2   7  -3 31.4523 1.13479   3
   2   7   3 29.1777 1.23920   3
  -2   7  -3 27.6831 1.84596   2
  -2   7  -3 30.9779 1.13086   3
   3  -7   3 16.6206 0.78606   3
  -3  -7  -3 16.3058 1.27558   2
  -3  -7  -3 13.6830 0.87829   3
  -3  -7  -3 15.0577 0.80868   3
   3   7   3 16.1404 0.84867   3
  -3   7  -3 15.3367 1.36194   2
  -4  -7  -3 44.0499 1.84245   3
  -4  -7  -3 46.8097 2.09872   3
  -4  -7  -3 44.6926 2.26021   2
   4  -7   3 45.1682 1.78523   3
  -4   7  -3 43.6915 2.54200   2
   4   7   3 45.1751 1.89366   3
  -5  -7  -3 6.63443 0.61343   3
   5  -7   3 5.70026 0.62340   3
  -5   7  -3 6.40103 1.09433   2
  -6  -7  -3 5.45719 0.70694   3
  -6   7  -3 4.78189 1.07374   2
  -7  -7  -3 34.7981 1.77768   3
   8  -8  -3 0.84120 0.66425   3
  -8  -8   3 0.98568 0.78317   3
   8   8  -3 0.57081 0.75208   3
   7  -8  -3 9.63493 0.89824   3
  -7  -8   3 10.9782 1.05350   3
   7   8  -3 10.8754 1.05869   3
   6  -8  -3 0.66603 0.52256   3
  -6  -8   3 1.70204 0.49903   3
   6  -8  -3 1.40329 0.39160   3
   6   8  -3 1.90625 0.53522   3
   6   8  -3 1.85609 0.69000   2
   5  -8  -3 42.6649 1.67180   3
  -5  -8   3 39.7414 2.07018   3
   5  -8  -3 43.4182 1.76543   3
   5  -8  -3 42.3871 2.70712   2
   5   8  -3 41.9035 2.35912   2
   5   8  -3 40.6869 1.82897   3
   4  -8  -3 82.0369 2.95607   3
   4  -8  -3 82.1127 3.00290   3
   4  -8  -3 80.2540 3.99030   2
  -4  -8   3 80.9125 3.17551   3
  -4  -8   3 82.5044 3.17862   3
   4   8  -3 85.4910 3.14116   3
   4   8  -3 84.0765 3.25602   3
   4   8  -3 78.3174 3.70931   2
  -3  -8   3 1.07959 0.34125   3
  -3  -8   3 1.02036 0.34901   3
   3  -8  -3 1.45811 0.68485   2
   3  -8  -3 1.20576 0.28260   3
   3  -8  -3 1.18106 0.21401   3
   3   8  -3 1.18990 0.30060   3
   3   8  -3 1.06013 0.40769   3
  -2  -8   3 5.08912 0.51713   3
   2  -8  -3 5.43757 0.97612   2
   2  -8  -3 5.11606 0.34719   3
  -2  -8   3 4.69628 0.53124   3
   2   8  -3 4.77275 0.55071   3
   2   8  -3 5.53861 0.43754   3
  -1  -8   3 301.913 10.4548   3
  -1  -8   3 312.071 10.3931   3
   1  -8  -3 293.734 10.2525   3
   1   8  -3 299.592 10.3226   3
   0  -8  -3 0.61652 0.51250   2
   0  -8  -3 0.61050 0.16525   3
   0  -8   3 0.29371 0.23703   3
   0  -8   3 0.35209 0.23260   3
   0   8  -3 0.15095 0.15109   3
   1  -8   3 0.39159 0.22174   3
  -1  -8  -3 0.65718 0.52288   2
  -1  -8  -3 0.18071 0.16931   3
  -1   8  -3 0.61696 0.14641   3
   1   8   3 0.28197 0.17103   3
  -1   8  -3 0.29809 0.43274   2
  -2  -8  -3 62.4205 2.48166   3
  -2  -8  -3 63.7120 2.56168   3
   2  -8   3 67.7933 2.48022   3
  -2  -8  -3 72.5189 3.25077   2
   2   8   3 65.9817 2.48445   3
  -2   8  -3 68.7485 3.37979   2
  -3  -8  -3 82.4573 3.10975   3
  -3  -8  -3 80.8336 3.70077   2
   3  -8   3 85.4720 3.04811   3
  -3  -8  -3 78.5959 3.16338   3
  -3   8  -3 90.2806 4.05115   2
   3   8   3 84.0495 3.12590   3
  -4  -8  -3 9.62942 0.69275   3
   4  -8   3 10.2265 0.67968   3
  -4  -8  -3 10.6391 1.17774   2
  -4   8  -3 8.81989 1.26631   2
   4   8   3 11.3895 0.81707   3
   5  -8   3 1.88409 0.43061   3
  -5  -8  -3 0.62753 0.37058   3
  -5  -8  -3 1.43097 0.63086   2
  -5   8  -3 2.17369 0.85949   2
  -6  -8  -3 13.0125 1.03935   3
  -6   8  -3 15.4583 1.70384   2
  -7  -8  -3 2.93670 0.62128   3
   7  -9  -3 10.0836 0.87984   3
  -7  -9   3 9.29523 1.04290   3
   7   9  -3 9.86776 1.07818   3
   6  -9  -3 -0.3837 0.55532   3
  -6  -9   3 1.23315 0.56531   3
   6  -9  -3 0.76683 0.37089   3
   6   9  -3 0.54850 0.71984   2
   6   9  -3 0.54134 0.45613   3
   5  -9  -3 57.9580 2.17467   3
  -5  -9   3 55.1746 2.41083   3
   5  -9  -3 57.0707 2.25632   3
   5   9  -3 58.6896 3.02674   2
   4  -9  -3 94.8070 4.54169   2
  -4  -9   3 93.5902 3.60035   3
   4  -9  -3 88.7811 3.47183   3
   4  -9  -3 92.4914 3.33880   3
   4   9  -3 101.616 4.35374   2
   4   9  -3 92.1462 3.65314   3
   4   9  -3 93.2508 3.52238   3
   3  -9  -3 27.9307 1.11238   3
   3  -9  -3 28.6085 2.08700   2
  -3  -9   3 26.5969 1.33618   3
  -3  -9   3 28.5161 1.36383   3
   3  -9  -3 28.5078 1.17146   3
   3   9  -3 27.9545 1.92394   2
   3   9  -3 27.7688 1.39766   3
   3   9  -3 29.7906 1.28626   3
   2  -9  -3 5.02050 0.33322   3
   2  -9  -3 3.21269 0.85828   2
  -2  -9   3 4.61107 0.55188   3
  -2  -9   3 5.37407 0.54665   3
   2   9  -3 5.09285 0.44233   3
   2   9  -3 3.69277 0.80973   2
   1  -9  -3 6.41251 0.38927   3
  -1  -9   3 7.33058 0.55839   3
  -1  -9   3 6.01348 0.56631   3
   1  -9  -3 6.65526 1.05423   2
   1   9  -3 6.87294 0.44401   3
   1   9  -3 7.42631 0.99138   2
   0  -9   3 79.6799 2.86555   3
   0  -9  -3 75.1376 2.76640   3
   0  -9   3 76.0246 2.92712   3
   0   9  -3 75.8836 2.73575   3
   0   9  -3 81.2136 3.80147   2
  -1  -9  -3 7.47658 0.48748   3
  -1  -9  -3 8.34114 1.11748   2
   1  -9   3 8.22043 0.56031   3
   1   9   3 7.73855 0.45787   3
  -1   9  -3 7.85286 1.08421   2
  -2  -9  -3 259.642 9.96738   2
   2  -9   3 276.115 9.11796   3
  -2  -9  -3 274.369 9.15060   3
  -2  -9  -3 269.625 9.22456   3
   2   9   3 267.696 9.11319   3
  -2   9  -3 239.875 10.1251   2
  -3  -9  -3 0.41658 0.26103   3
  -3  -9  -3 0.16053 0.35752   3
  -3  -9  -3 0.41834 0.64756   2
   3  -9   3 0.76753 0.29159   3
   3   9   3 -0.2784 0.31077   3
  -3   9  -3 0.28435 0.61450   2
  -4  -9  -3 26.9470 1.90004   2
   4  -9   3 27.7346 1.26557   3
  -4  -9  -3 29.1973 1.35231   3
  -4   9  -3 32.8156 2.26330   2
   4   9   3 27.2497 1.39368   3
  -5  -9  -3 0.91924 0.42851   3
   5  -9   3 0.78765 0.43481   3
  -5  -9  -3 0.89455 0.75362   2
  -5   9  -3 1.24973 0.82669   2
  -6  -9  -3 1.23404 0.51016   3
  -6   9  -3 1.20065 1.04440   2
  -7  -9  -3 0.45759 0.62053   3
  -7 -10   3 20.4806 1.41197   3
   7 -10  -3 19.5057 1.20912   3
   7  10  -3 20.6254 1.41956   3
   6 -10  -3 4.60744 0.61818   3
  -6 -10   3 5.78054 0.81672   3
   6  10  -3 5.01274 1.14392   2
   6  10  -3 5.20232 0.71721   3
   5 -10  -3 39.6364 1.69827   3
  -5 -10   3 40.0981 1.86979   3
   5 -10  -3 39.3317 1.58960   3
   5  10  -3 39.7655 2.49132   2
   5  10  -3 41.2841 1.82798   3
  -4 -10   3 66.8763 2.65161   3
   4 -10  -3 62.0792 2.34142   3
   4  10  -3 61.8527 3.31320   2
   4  10  -3 64.1130 2.71206   3
   4  10  -3 66.6025 2.57100   3
   3 -10  -3 197.956 6.89691   3
   3 -10  -3 200.191 6.85181   3
  -3 -10   3 200.654 7.14714   3
  -3 -10   3 198.755 7.11226   3
   3  10  -3 209.902 7.04515   3
   3  10  -3 182.531 7.94259   2
   3  10  -3 209.085 7.15087   3
   2 -10  -3 29.8634 2.18294   2
  -2 -10   3 30.5581 1.41950   3
  -2 -10   3 29.5561 1.37222   3
   2 -10  -3 30.6991 1.15694   3
   2  10  -3 29.3248 1.26124   3
  -1 -10   3 45.7524 1.87646   3
   1 -10  -3 39.9683 2.59936   2
  -1 -10   3 45.5286 1.81568   3
   1 -10  -3 46.2014 1.65005   3
   1  10  -3 45.9782 1.69166   3
   1  10  -3 42.7988 2.62118   2
   0 -10  -3 0.24619 0.17429   3
   0 -10   3 0.21717 0.27673   3
   0 -10   3 -0.1575 0.25201   3
   0 -10  -3 0.28673 0.56469   2
   0  10  -3 0.25427 0.53681   2
  -1 -10  -3 481.874 15.9230   2
   1 -10   3 417.352 14.7414   3
   1 -10   3 410.261 14.8175   3
  -1 -10  -3 420.565 14.7198   3
  -2 -10  -3 3.66159 0.92224   2
  -2 -10  -3 3.06725 0.45135   3
  -2 -10  -3 4.33896 0.44941   3
   2 -10   3 3.89511 0.48146   3
  -2  10  -3 3.28980 0.87449   2
   3 -10   3 52.1715 2.05254   3
  -3 -10  -3 56.8157 2.34195   3
  -3 -10  -3 52.5920 2.92348   2
  -3 -10  -3 53.1728 2.12108   3
   3  10   3 51.6825 2.12899   3
  -4 -10  -3 7.99428 1.32162   2
  -4 -10  -3 7.17583 0.74621   3
   4 -10   3 8.38412 0.68426   3
   4  10   3 9.58857 0.85898   3
  -4  10  -3 7.38158 1.31467   2
  -5 -10  -3 82.6371 3.17285   3
   5 -10   3 78.1179 3.05431   3
  -5  10  -3 79.9396 4.16944   2
  -6 -10  -3 0.16310 0.50068   3
  -6  10  -3 -0.0745 1.12641   2
  -7 -10  -3 0.17072 0.75623   3
  -7 -11   3 16.1370 1.37076   3
   7  11  -3 16.3757 1.39633   3
  -6 -11   3 1.77306 0.58927   3
   6 -11  -3 -0.4482 0.37066   3
   6  11  -3 -0.5009 0.56190   3
   6  11  -3 -0.0901 0.88579   2
   5 -11  -3 12.0260 0.88294   3
   5 -11  -3 12.0544 0.68307   3
  -5 -11   3 12.4621 1.00918   3
   5  11  -3 12.5607 0.92840   3
   5  11  -3 10.6787 1.51194   2
  -4 -11   3 71.1319 2.89548   3
   4 -11  -3 65.6377 2.70498   3
   4 -11  -3 69.0314 2.57002   3
   4  11  -3 72.8842 2.80508   3
   4  11  -3 69.8672 2.96338   3
   4  11  -3 80.2114 3.82577   2
   3 -11  -3 88.6574 3.06540   3
  -3 -11   3 89.3565 3.38471   3
   3  11  -3 77.0665 4.14688   2
   3  11  -3 90.7421 3.26090   3
   3  11  -3 87.9179 3.36695   3
   2 -11  -3 0.23988 0.18008   3
  -2 -11   3 -0.5281 0.29241   3
  -2 -11   3 0.05316 0.37145   3
   2  11  -3 0.47818 0.25208   3
   2  11  -3 0.18464 0.51295   2
  -1 -11   3 1.86765 0.39565   3
   1 -11  -3 1.85430 0.24926   3
  -1 -11   3 2.06666 0.39445   3
   1  11  -3 1.74026 0.72187   2
   1  11  -3 1.89253 0.25991   3
   0 -11   3 42.0790 1.67662   3
   0 -11  -3 41.7282 1.54630   3
   0 -11   3 41.8319 1.73118   3
   0  11  -3 33.5525 2.43940   2
   1 -11   3 5.05875 0.54649   3
  -1 -11  -3 4.05400 0.41998   3
  -1 -11  -3 3.55372 0.97948   2
   1 -11   3 4.93440 0.54880   3
  -1 -11  -3 4.37924 0.51032   3
  -1  11  -3 4.24834 1.06075   2
  -2 -11  -3 76.9460 3.90665   2
   2 -11   3 82.3778 2.88039   3
  -2 -11  -3 78.0638 2.97816   3
  -2 -11  -3 79.6230 2.89714   3
  -2  11  -3 66.2166 3.90202   2
   2  11   3 79.5187 2.82901   3
  -3 -11  -3 10.2303 1.46565   2
  -3 -11  -3 6.95241 0.62913   3
   3 -11   3 8.59083 0.65461   3
  -3  11  -3 8.67256 1.39493   2
   3  11   3 6.48449 0.72556   3
  -4 -11  -3 2.63147 1.04316   2
   4 -11   3 2.93657 0.47699   3
  -4 -11  -3 2.11068 0.49243   3
   4  11   3 2.43385 0.57212   3
  -4  11  -3 2.65426 0.97200   2
  -5 -11  -3 0.61326 0.47276   3
  -6 -11  -3 4.03988 0.67486   3
  -6  11  -3 3.79134 1.49627   2
  -7 -12   3 0.27477 1.04905   3
   7  12  -3 0.64276 0.81237   3
  -6 -12   3 10.2290 1.09709   3
   6  12  -3 9.08849 1.08867   3
   6  12  -3 9.04269 1.66779   2
  -5 -12   3 4.29454 0.67287   3
   5 -12  -3 3.86894 0.48559   3
   5  12  -3 4.14965 1.18312   2
   5  12  -3 4.24326 0.65636   3
  -4 -12   3 16.5250 1.09839   3
   4  12  -3 14.8814 1.69113   2
   4  12  -3 16.9260 1.29382   3
   4  12  -3 15.8763 0.98134   3
  -3 -12   3 13.0453 0.91966   3
   3  12  -3 12.7488 1.51802   2
   3  12  -3 10.9905 0.77048   3
  -2 -12   3 0.45978 0.43832   3
  -2 -12   3 0.92408 0.39506   3
   2  12  -3 1.08220 0.28798   3
   2  12  -3 0.50628 0.69085   2
  -1 -12   3 81.8323 3.18388   3
   1 -12  -3 83.8499 2.94443   3
  -1 -12   3 80.7878 3.12891   3
   1  12  -3 84.0892 4.26815   2
   0 -12   3 58.3036 2.31995   3
   0 -12   3 58.8109 2.37516   3
   0 -12  -3 59.7988 2.19929   3
   0  12  -3 59.7933 3.43777   2
   1 -12   3 26.4283 1.22353   3
  -1 -12  -3 24.7616 1.23843   3
   1 -12   3 26.1806 1.28269   3
  -1 -12  -3 25.7785 1.15041   3
  -1  12  -3 29.7060 2.28931   2
   2 -12   3 0.67435 0.36990   3
  -2 -12  -3 0.27850 0.27801   3
  -2 -12  -3 0.74769 0.43199   3
  -2  12  -3 0.29846 0.71172   2
   3 -12   3 6.40594 0.65002   3
  -3 -12  -3 4.74249 0.59021   3
  -3 -12  -3 7.13585 1.62547   2
   3  12   3 5.94061 0.74911   3
  -4 -12  -3 2.89199 0.51411   3
  -4 -12  -3 2.62701 1.20248   2
   4 -12   3 4.03303 0.55847   3
  -4  12  -3 2.89495 1.05309   2
   4  12   3 3.04547 0.69771   3
  -5 -12  -3 14.2122 1.10874   3
  -5  12  -3 13.2373 1.99820   2
  -6 -12  -3 161.490 5.87722   3
  -6  12  -3 152.726 7.19006   2
  -6 -13   3 1.15992 0.74873   3
   6  13  -3 0.47227 1.14383   2
   6  13  -3 0.80756 0.79384   3
  -5 -13   3 7.02410 0.88380   3
   5  13  -3 8.02290 0.99192   3
   5  13  -3 6.28645 1.39392   2
  -4 -13   3 1.32530 0.54298   3
   4  13  -3 1.67474 0.47042   3
   4  13  -3 1.01243 0.95985   2
   4  13  -3 1.94259 0.80963   3
  -3 -13   3 14.0394 1.24668   3
   3  13  -3 19.3045 1.00654   3
   3  13  -3 20.5407 1.96301   2
   2 -13  -3 68.3063 2.42041   3
  -2 -13   3 67.8958 2.73330   3
   2  13  -3 71.7591 2.51013   3
   2  13  -3 61.3770 3.72578   2
   1 -13  -3 2.89248 0.35384   3
  -1 -13   3 2.27948 0.49214   3
  -1 -13   3 3.45503 0.54118   3
   1  13  -3 2.29114 0.87856   2
   0 -13  -3 45.0132 1.85087   3
   0 -13   3 47.1354 1.90818   3
   0 -13   3 44.9372 1.93459   3
   0 -13  -3 46.4696 1.75589   3
   0  13  -3 41.7251 3.18111   2
  -1 -13  -3 26.9780 1.19635   3
   1 -13   3 28.5077 1.34181   3
   1 -13   3 27.7873 1.29637   3
  -1 -13  -3 27.4272 1.31034   3
  -1  13  -3 22.8441 2.35620   2
   2 -13   3 2.25839 0.47751   3
   2 -13   3 2.79677 0.48927   3
  -2 -13  -3 2.39496 0.40731   3
  -2  13  -3 1.55918 0.89801   2
  -3 -13  -3 1.96707 0.51058   3
   3 -13   3 2.24075 0.50709   3
  -3  13  -3 2.71176 1.11159   2
  -4 -13  -3 3.01789 0.61629   3
  -4  13  -3 3.35156 1.27749   2
  -5 -13  -3 2.36374 0.64342   3
  -5  13  -3 1.82909 1.39682   2
  -6  13  -3 5.47227 2.01491   2
  -6 -14   3 5.25914 0.94247   3
   6  14  -3 7.80265 1.75418   2
   6  14  -3 8.19084 1.10143   3
  -5 -14   3 0.79604 0.62329   3
   5  14  -3 0.53958 0.67089   3
   5  14  -3 -0.3251 1.11080   2
  -4 -14   3 0.32356 0.58403   3
   4  14  -3 0.13087 0.93258   2
   4  14  -3 0.18950 0.49905   3
  -3 -14   3 1.59446 0.52127   3
   3  14  -3 2.40625 1.01318   2
   3  14  -3 2.54140 0.46295   3
  -2 -14   3 1.73220 0.52347   3
   2  14  -3 1.71472 1.05585   2
  -1 -14   3 1.22756 0.62715   3
  -1 -14   3 1.38495 0.48409   3
   1  14  -3 1.20246 0.77197   2
   0 -14  -3 2.40170 0.47116   3
   0 -14   3 1.45015 0.50539   3
   0 -14   3 1.63714 0.47467   3
   0 -14  -3 1.70009 0.33420   3
   0  14  -3 1.34191 0.93496   2
   1 -14   3 11.5160 0.90744   3
  -1 -14  -3 12.7429 0.75305   3
   1 -14   3 10.0157 0.88917   3
  -1 -14  -3 11.9584 0.89799   3
  -1  14  -3 11.9365 1.70855   2
   2 -14   3 17.5833 1.11171   3
   2 -14   3 17.9310 1.05085   3
  -2 -14  -3 15.8546 0.97470   3
  -2  14  -3 19.1354 2.07014   2
  -3 -14  -3 19.8776 1.14610   3
  -3  14  -3 19.7344 2.21554   2
  -4 -14  -3 8.52538 0.95907   3
  -4  14  -3 9.18782 2.00676   2
  -5 -14  -3 5.86078 0.82805   3
  -5  14  -3 5.99668 1.85977   2
  -5 -15   3 6.04004 0.96227   3
   5  15  -3 6.29598 1.73000   2
   5  15  -3 6.27087 0.95953   3
  -4 -15   3 4.31997 0.76929   3
   4  15  -3 2.63232 1.21609   2
   4  15  -3 0.47789 0.59722   3
  -3 -15   3 0.14110 0.56000   3
   3  15  -3 0.35298 0.98440   2
  -2 -15   3 14.8992 1.12424   3
   2  15  -3 14.8542 2.02427   2
  -1 -15   3 7.53244 0.85528   3
   1 -15  -3 5.31148 0.51257   3
   1 -15  -3 5.49887 0.72178   3
   1  15  -3 5.89103 1.33926   2
   0 -15  -3 6.80562 0.78655   3
   0 -15   3 7.23524 0.78263   3
   0 -15  -3 6.58014 0.59170   3
   0 -15   3 7.01209 0.88556   3
   0  15  -3 6.45174 1.50132   2
   1 -15   3 1.83929 0.57242   3
  -1 -15  -3 1.86278 0.65360   3
  -1 -15  -3 0.60248 0.36252   3
   1 -15   3 2.04791 0.53350   3
  -1  15  -3 0.19456 1.00805   2
   2 -15   3 3.05863 0.63079   3
  -2 -15  -3 2.87172 0.52743   3
  -2  15  -3 2.32906 1.18743   2
   3 -15   3 6.26010 0.77987   3
  -3 -15  -3 4.77126 0.66663   3
  -3  15  -3 5.03200 1.64209   2
  -4 -15  -3 14.3517 1.19223   3
  -4  15  -3 15.0091 2.42673   2
  -4 -16   3 8.67350 1.19465   3
   4  16  -3 9.10596 2.18937   2
  -3 -16   3 -0.7866 0.65647   3
   3  16  -3 0.10908 1.11090   2
  -2 -16   3 1.92494 0.66287   3
   2  16  -3 1.82571 1.22160   2
  -1 -16   3 2.34275 0.62839   3
   1 -16  -3 1.11738 0.35292   3
   1  16  -3 2.46028 1.29886   2
   0 -16   3 10.7087 1.00790   3
   0 -16  -3 9.36273 0.72253   3
   0  16  -3 10.8890 1.91694   2
  -1 -16  -3 2.56048 0.50863   3
   1 -16   3 1.65793 0.59152   3
  -1  16  -3 3.40282 1.35548   2
   2 -16   3 19.5680 1.29252   3
  -2 -16  -3 18.9622 1.14596   3
  -2  16  -3 18.4199 2.32294   2
  -3 -16  -3 2.18292 0.63363   3
  -3  16  -3 2.34442 1.42463   2
  -4 -16  -3 2.95345 0.76891   3
  -4  16  -3 3.67218 1.69037   2
  -3 -17   3 31.0519 1.78649   3
   3  17  -3 25.0815 2.80371   2
  -2 -17   3 0.31297 0.67600   3
   2  17  -3 0.32840 1.20451   2
  -1 -17   3 -1.0108 0.59634   3
   1  17  -3 0.24725 1.11958   2
   0 -17  -3 11.1252 0.81320   3
   0 -17   3 9.67855 1.09013   3
   0  17  -3 6.78543 1.58883   2
   1 -17   3 15.1585 1.16187   3
  -1 -17  -3 12.9365 0.96269   3
  -1  17  -3 8.89825 2.05508   2
  -2 -17  -3 -1.1971 0.56167   3
  -2  17  -3 -0.2949 1.22558   2
  -3 -17  -3 2.94610 0.75216   3
  -3  17  -3 4.92730 1.90903   2
  -2 -18   3 40.3822 2.10096   3
   2  18  -3 34.3088 3.33149   2
  -1 -18   3 12.4965 1.31752   3
   1  18  -3 14.0656 2.33213   2
   0 -18   3 83.4629 3.26195   3
   0  18  -3 72.6894 4.83411   2
  -1 -18  -3 28.9287 1.46639   3
  -1  18  -3 24.7406 2.97186   2
  -2 -18  -3 0.80770 0.73964   3
  -2  18  -3 -1.4776 1.68317   2
   8   0  -4 15.8896 1.28321   3
  -8   0   4 13.7898 1.10466   3
  -7   0   4 3.63881 0.53618   3
   7   0  -4 3.06167 0.57133   3
  -7   0   4 3.48611 0.72054   3
  -6   0   4 0.40503 0.47060   3
   6   0  -4 -0.0096 0.31138   3
  -6   0   4 -0.3427 0.29401   3
  -5   0   4 49.1879 2.01306   3
   5   0  -4 49.8298 2.17793   3
  -5   0   4 51.8362 2.05279   3
   5   0  -4 51.4783 2.08655   3
  -4   0   4 14.5483 0.79976   3
  -4   0   4 14.9019 0.79844   3
   4   0  -4 14.3216 0.89370   3
   4   0  -4 13.2543 0.78950   3
  -3   0   4 16.4188 0.80451   3
   3   0  -4 14.1900 0.87214   3
  -3   0   4 15.5805 0.81116   3
   3   0  -4 16.1907 0.80656   3
   2   0  -4 1366.96 45.8640   3
  -2   0   4 1340.68 45.8144   3
  -2   0   4 1366.49 45.7580   3
  -1   0   4 391.752 13.2269   3
  -1   0   4 391.566 13.3096   3
   1   0  -4 381.177 13.2510   3
   0   0  -4 -0.1040 0.15699   3
   0   0   4 0.01165 0.16898   3
   0   0   4 -0.1385 0.18884   3
   1   0   4 89.7719 3.22687   3
  -2   0  -4 35.8754 1.48819   3
   2   0   4 37.5056 1.47260   3
  -3   0  -4 35.8882 1.50668   3
  -3   0  -4 37.0386 1.56393   3
   3   0   4 35.6023 1.48487   3
  -4   0  -4 96.1613 3.59110   3
   4   0   4 94.9712 3.54588   3
  -4   0  -4 97.2894 3.56158   3
  -5   0  -4 0.15988 0.42855   3
  -5   0  -4 -0.3627 0.31259   3
  -6   0  -4 22.0211 1.19569   3
  -7   0  -4 146.542 5.41316   3
  -8   0  -4 -0.0831 0.82217   3
   8  -1  -4 -0.9399 0.58456   3
  -8  -1   4 0.32492 0.57675   3
  -8   1   4 0.38289 0.52733   3
   8   1  -4 0.78817 0.58450   3
   7  -1  -4 171.893 6.96147   2
   7  -1  -4 170.017 6.16179   3
  -7   1   4 167.903 5.95234   3
  -7   1   4 161.425 6.02425   3
   7   1  -4 168.913 6.18184   3
  -6  -1   4 12.3217 0.97197   3
  -6  -1   4 12.4178 0.82616   3
   6  -1  -4 12.7727 0.85899   3
  -6   1   4 12.5776 0.91227   3
  -6   1   4 12.8972 0.77969   3
   6   1  -4 10.9333 0.93111   3
   5  -1  -4 21.5595 1.23841   3
  -5  -1   4 22.3406 1.16209   3
   5  -1  -4 22.3629 1.12496   3
  -5  -1   4 22.7189 1.11411   3
  -5   1   4 22.1879 1.10834   3
   5   1  -4 23.6871 1.15454   3
  -5   1   4 23.1405 1.06979   3
   5   1  -4 21.8273 1.28040   3
  -4  -1   4 22.2135 1.07931   3
  -4  -1   4 22.4186 1.08237   3
   4  -1  -4 21.6165 1.14881   3
   4  -1  -4 22.1483 1.06554   3
   4   1  -4 21.4690 1.16647   3
   4   1  -4 22.4176 1.08296   3
  -4   1   4 22.4703 1.03575   3
  -4   1   4 22.9972 1.03205   3
  -3  -1   4 1.01420 0.26870   3
  -3  -1   4 0.71570 0.24497   3
   3  -1  -4 0.84809 0.23615   3
   3  -1  -4 1.73675 0.34795   3
  -3   1   4 1.72484 0.30323   3
  -3   1   4 1.33559 0.26662   3
   3   1  -4 1.81475 0.38903   3
   3   1  -4 1.15390 0.23749   3
   2  -1  -4 608.650 20.5094   3
   2  -1  -4 607.165 20.5804   3
  -2  -1   4 625.683 20.5116   3
  -2  -1   4 608.993 20.5649   3
   2   1  -4 584.712 20.5139   3
  -2   1   4 585.776 20.5298   3
   2   1  -4 616.044 20.6048   3
  -2   1   4 596.733 20.5189   3
  -1  -1   4 1066.29 36.1800   3
  -1  -1   4 1126.19 36.1077   3
  -1   1   4 1050.89 36.1459   3
   1   1  -4 1036.50 36.1140   3
   0  -1   4 22.4729 1.06241   3
   0  -1   4 23.9713 0.98446   3
   0   1   4 21.7593 1.04490   3
   0   1  -4 22.3512 0.99042   3
   0   1   4 22.0024 0.95034   3
   1  -1   4 16.3293 0.75648   3
  -1  -1  -4 14.6726 0.75470   3
  -1   1  -4 15.9731 0.77299   3
   1   1   4 16.5534 0.74808   3
  -2  -1  -4 69.2234 2.60474   3
   2  -1   4 70.8216 2.58519   3
  -2   1  -4 67.9956 2.60317   3
   2   1   4 71.6330 2.58136   3
  -3  -1  -4 17.8751 0.98573   3
   3  -1   4 19.9335 0.91451   3
  -3  -1  -4 19.9841 0.94741   3
   3   1   4 18.4846 0.91278   3
  -3   1  -4 19.6615 0.93598   3
  -3   1  -4 19.2610 0.98326   3
  -4  -1  -4 291.500 10.1532   3
  -4  -1  -4 295.912 10.1105   3
   4  -1   4 288.664 10.0851   3
  -4   1  -4 289.974 10.1175   3
   4   1   4 282.702 10.0949   3
  -4   1  -4 299.800 10.1042   3
  -5  -1  -4 7.92448 0.67736   3
  -5   1  -4 7.97189 0.67568   3
  -5   1  -4 7.64904 0.77374   3
  -6  -1  -4 18.2712 1.06164   3
  -6   1  -4 16.3870 1.15233   3
  -7  -1  -4 1.37607 0.62097   3
  -7   1  -4 2.04151 0.60119   3
  -8  -1  -4 35.4272 1.99632   3
  -8   1  -4 36.4559 1.99625   3
   8  -2  -4 54.5422 2.42880   3
  -8  -2   4 51.5403 2.31181   3
   8   2  -4 50.6781 2.43164   3
  -8   2   4 52.3096 2.10473   3
  -7  -2   4 11.0873 0.89602   3
   7  -2  -4 14.1900 2.13074   2
   7  -2  -4 12.4938 0.98162   3
  -7   2   4 11.5374 0.78695   3
   7   2  -4 12.9684 0.98673   3
  -6  -2   4 12.6515 1.19282   3
  -6  -2   4 14.4072 0.90986   3
   6  -2  -4 12.6623 0.88672   3
  -6   2   4 14.4731 0.78845   3
   6   2  -4 13.5002 0.93296   3
  -6   2   4 14.0458 0.90265   3
  -5  -2   4 9.41779 0.76770   3
  -5  -2   4 9.29323 0.71206   3
   5  -2  -4 8.26401 0.83337   3
   5  -2  -4 9.45546 0.67630   3
   5   2  -4 7.58589 0.85483   3
  -5   2   4 10.2686 0.68184   3
   5   2  -4 9.24653 0.68287   3
  -5   2   4 9.20747 0.60537   3
   4  -2  -4 45.4127 1.84488   3
   4  -2  -4 44.5763 1.92227   3
  -4  -2   4 46.1590 1.89607   3
  -4  -2   4 44.3846 1.86822   3
  -4   2   4 47.0882 1.78765   3
   4   2  -4 46.6924 1.89346   3
  -4   2   4 46.7096 1.78253   3
   4   2  -4 45.6345 1.97997   3
   3  -2  -4 29.8008 1.35539   3
  -3  -2   4 30.5357 1.34186   3
  -3  -2   4 29.1375 1.29701   3
   3  -2  -4 30.1625 1.27386   3
   3   2  -4 29.4202 1.39401   3
  -3   2   4 31.2425 1.25350   3
   2  -2  -4 94.3754 3.30844   3
  -2  -2   4 87.5248 3.36430   3
  -2  -2   4 89.7425 3.31132   3
   2  -2  -4 89.5722 3.36111   3
  -2   2   4 92.5228 3.24375   3
   2   2  -4 91.6694 3.32633   3
   2   2  -4 94.0296 3.41340   3
  -2   2   4 88.9030 3.28935   3
  -1  -2   4 1.21589 0.26370   3
   1  -2  -4 1.25927 0.24207   3
  -1  -2   4 1.78143 0.30066   3
  -1   2   4 1.60666 0.24841   3
   1   2  -4 1.42435 0.24665   3
  -1   2   4 1.27518 0.27228   3
   0  -2   4 124.260 4.30299   3
   0  -2   4 120.465 4.39528   3
   0  -2  -4 122.152 4.30049   3
   0   2   4 124.278 4.37155   3
   0   2   4 115.760 4.31050   3
   0   2  -4 121.327 4.31065   3
  -1  -2  -4 42.0691 1.65206   3
   1  -2   4 41.7336 1.64053   3
  -1   2  -4 41.8592 1.65523   3
   1   2   4 42.8498 1.62350   3
  -2  -2  -4 104.385 3.87488   3
   2  -2   4 109.424 3.86562   3
   2   2   4 111.741 3.86489   3
  -2   2  -4 106.273 3.87378   3
   3  -2   4 76.0261 2.81691   3
  -3  -2  -4 75.8193 2.83839   3
  -3  -2  -4 74.5001 2.90270   3
  -3   2  -4 76.4314 2.85727   3
   3   2   4 73.8512 2.81295   3
  -3   2  -4 77.6988 2.83186   3
  -4  -2  -4 2.71154 0.40526   3
   4  -2   4 1.96430 0.33958   3
  -4  -2  -4 2.70617 0.48203   3
   4   2   4 1.85002 0.35941   3
  -4   2  -4 2.42740 0.40727   3
  -4   2  -4 2.17239 0.43045   3
  -5  -2  -4 104.923 3.85081   3
  -5   2  -4 102.503 3.83104   3
  -5   2  -4 106.186 3.81264   3
  -5   2  -4 97.8487 4.15339   2
  -6  -2  -4 10.0130 0.84367   3
  -6   2  -4 9.21678 1.03311   3
  -6   2  -4 9.38346 0.79029   3
  -7  -2  -4 3.56165 0.69044   3
  -7   2  -4 4.43696 0.69452   3
  -8  -2  -4 0.53545 0.76798   3
  -8   2  -4 0.93408 0.86773   3
  -8  -3   4 13.7773 1.19709   3
   8  -3  -4 13.7473 1.21583   3
   8   3  -4 16.0043 1.25399   3
   7  -3  -4 24.3985 1.35239   3
  -7  -3   4 25.0406 1.35588   3
   7   3  -4 26.1317 1.42681   3
  -7   3   4 24.5452 1.11444   3
   6  -3  -4 1.88660 0.39966   3
  -6  -3   4 1.76444 0.43241   3
  -6   3   4 2.52326 0.42413   3
   6   3  -4 1.26436 0.38087   3
  -6   3   4 2.29866 0.33508   3
   5  -3  -4 39.7079 1.70719   3
  -5  -3   4 41.9139 1.76896   3
   5  -3  -4 41.4373 1.82117   3
  -5  -3   4 41.2362 1.79431   3
  -5   3   4 36.6863 1.71595   3
  -5   3   4 41.0446 1.56806   3
   5   3  -4 40.7589 1.76890   3
  -4  -3   4 2.24890 0.40850   3
   4  -3  -4 2.85498 0.38694   3
  -4  -3   4 3.09630 0.47718   3
   4  -3  -4 3.49803 0.48552   3
   4   3  -4 2.89433 0.43062   3
   4   3  -4 2.98331 0.50642   3
  -4   3   4 2.94925 0.38487   3
  -4   3   4 3.13002 0.35917   3
   3  -3  -4 17.6587 0.91495   3
  -3  -3   4 16.6388 0.87449   3
   3  -3  -4 15.9482 0.81056   3
  -3  -3   4 16.2252 0.90723   3
   3   3  -4 16.1467 0.85470   3
  -3   3   4 17.5816 0.75377   3
  -3   3   4 16.3855 0.76208   3
   3   3  -4 15.8642 0.95597   3
  -2  -3   4 20.2272 0.93855   3
   2  -3  -4 18.5467 0.87074   3
   2  -3  -4 19.2239 0.95915   3
  -2  -3   4 19.1459 0.97774   3
   2   3  -4 19.4301 0.91866   3
  -2   3   4 20.0310 0.82097   3
  -2   3   4 19.0970 0.86713   3
   2   3  -4 18.6118 0.99986   3
   1  -3  -4 11.1330 0.58609   3
  -1  -3   4 10.5648 0.61588   3
  -1  -3   4 11.1943 0.68291   3
  -1   3   4 10.4062 0.60825   3
  -1   3   4 10.6203 0.53310   3
   1   3  -4 10.9848 0.60569   3
   0  -3   4 67.6463 2.44292   3
   0  -3   4 65.2436 2.53041   3
   0  -3  -4 68.5811 2.42930   3
   0   3   4 63.0060 2.43831   3
   0   3   4 65.0432 2.47788   3
   0   3  -4 63.7450 2.43465   3
   1  -3   4 137.681 4.78919   3
  -1  -3  -4 137.675 4.78757   3
   1   3   4 132.833 4.74120   3
  -1   3  -4 134.123 4.78675   3
   2  -3   4 15.3850 0.76365   3
  -2  -3  -4 14.9687 0.76484   3
   2   3   4 15.2249 0.74894   3
  -2   3  -4 14.7090 0.75944   3
  -3  -3  -4 0.01665 0.21882   3
  -3  -3  -4 0.13555 0.28528   3
   3  -3   4 0.22480 0.23882   3
  -3   3  -4 0.37692 0.23593   3
  -3   3  -4 0.58849 0.26482   3
   3   3   4 0.41386 0.24878   3
  -4  -3  -4 60.6187 2.51762   3
  -4  -3  -4 62.3143 2.46672   3
   4  -3   4 65.2952 2.43726   3
   4   3   4 62.4777 2.47084   3
  -4   3  -4 63.8695 2.44285   3
  -4   3  -4 63.6134 2.42520   3
  -5  -3  -4 8.75068 0.89431   3
  -5   3  -4 8.57816 0.98785   2
  -5   3  -4 8.10851 0.67109   3
  -5   3  -4 9.06948 0.73351   3
  -6  -3  -4 2.41333 0.51118   3
  -6   3  -4 2.44806 0.49609   3
  -6   3  -4 1.92215 0.53881   3
  -6   3  -4 2.54038 0.66482   2
  -7  -3  -4 1.94810 0.63563   3
  -8  -3  -4 2.75775 0.83719   3
   8  -4  -4 1.83233 0.71775   3
  -8  -4   4 2.46402 0.72406   3
   8   4  -4 1.52998 0.60993   3
  -7  -4   4 1.48210 0.50827   3
   7  -4  -4 0.59904 0.46840   3
   7   4  -4 0.28973 0.47230   3
   6  -4  -4 1.90309 0.42392   3
  -6  -4   4 1.03083 0.39166   3
   6  -4  -4 1.78767 0.96957   2
  -6   4   4 1.32518 0.24393   3
   6   4  -4 0.76243 0.38612   3
  -5  -4   4 9.84557 0.77543   3
  -5  -4   4 9.30162 0.84921   3
   5  -4  -4 10.9524 0.71168   3
   5  -4  -4 9.88680 0.84275   3
  -5   4   4 10.2371 0.56873   3
  -5   4   4 10.0134 0.52485   3
   5   4  -4 11.0915 0.77627   3
   4  -4  -4 180.218 6.37156   3
   4  -4  -4 176.720 6.29427   3
  -4  -4   4 183.928 6.39172   3
  -4  -4   4 176.808 6.39726   3
   4   4  -4 180.883 6.49660   3
  -4   4   4 178.541 6.15070   3
  -4   4   4 179.201 6.15008   3
   4   4  -4 176.720 6.36955   3
   3  -4  -4 38.2345 1.52066   3
  -3  -4   4 38.3956 1.59845   3
   3  -4  -4 37.0243 1.59148   3
   3   4  -4 38.3789 1.68998   3
   3   4  -4 35.8995 1.56513   3
  -3   4   4 38.1539 1.42504   3
  -3   4   4 37.1832 1.40123   3
  -2  -4   4 1.33013 0.33286   3
   2  -4  -4 0.89137 0.29792   3
   2  -4  -4 1.08197 0.22612   3
  -2  -4   4 1.04487 0.29893   3
  -2   4   4 1.26361 0.19242   3
   2   4  -4 1.30647 0.38106   3
  -2   4   4 1.41371 0.23668   3
   2   4  -4 0.70279 0.21682   3
  -1  -4   4 41.4473 1.74265   3
  -1  -4   4 42.0585 1.66976   3
   1  -4  -4 40.2943 1.60924   3
  -1   4   4 43.0326 1.55553   3
  -1   4   4 41.3834 1.62296   3
   1   4  -4 42.6472 1.66224   3
   0  -4  -4 96.6812 3.55317   3
   0  -4   4 97.5278 3.67734   3
   0  -4   4 100.972 3.59190   3
   0   4  -4 100.548 3.58178   3
   0   4   4 97.6614 3.60273   3
   0   4   4 103.601 3.50944   3
  -1  -4  -4 317.307 11.2044   3
   1  -4   4 335.767 11.2251   3
   1   4   4 325.018 11.1687   3
  -1   4  -4 330.897 11.2157   3
  -2  -4  -4 17.0112 0.85446   3
   2  -4   4 18.6284 0.85801   3
   2   4   4 17.1527 0.83337   3
  -2   4  -4 17.6189 0.84397   3
  -3  -4  -4 1.12307 0.31077   3
   3  -4   4 0.69792 0.26067   3
  -3  -4  -4 1.12556 0.35341   3
  -3   4  -4 1.01631 0.28562   3
  -3   4  -4 1.04260 0.27603   3
   3   4   4 0.70125 0.26791   3
  -4  -4  -4 4.44600 0.61766   3
   4  -4   4 4.98165 0.53601   3
  -4  -4  -4 5.90571 0.55555   3
  -4   4  -4 6.82879 0.58886   3
  -4   4  -4 6.92464 0.55146   3
   4   4   4 6.07272 0.64347   3
  -5  -4  -4 1.99274 0.40045   3
  -5   4  -4 1.58057 0.39402   3
  -5   4  -4 2.24194 0.45463   3
  -5   4  -4 1.26017 0.60619   2
  -6  -4  -4 2.24491 0.52754   3
  -6   4  -4 3.04462 0.52441   3
  -6   4  -4 3.39463 0.81393   2
  -6   4  -4 2.74166 0.57078   3
  -7  -4  -4 26.1211 1.52141   3
  -7   4  -4 26.0690 1.42380   3
   8  -5  -4 21.0492 1.39811   3
  -8  -5   4 18.8069 1.36157   3
   8   5  -4 15.3946 1.32207   3
  -7  -5   4 46.0519 2.09218   3
   7  -5  -4 45.4032 2.04239   3
   7   5  -4 46.0262 2.15394   3
   6  -5  -4 6.08940 1.26028   2
   6  -5  -4 6.11263 0.65245   3
  -6  -5   4 6.54780 0.74113   3
   6   5  -4 5.70173 0.70873   3
   5  -5  -4 10.8812 0.71005   3
  -5  -5   4 11.2363 0.81164   3
   5  -5  -4 8.54479 1.37349   2
   5  -5  -4 10.2367 0.84281   3
   5   5  -4 9.52453 0.75131   3
  -4  -5   4 32.8864 1.50808   3
   4  -5  -4 31.9210 1.46355   3
  -4  -5   4 32.0741 1.49114   3
   4  -5  -4 31.5363 1.36841   3
   4   5  -4 33.1132 1.46373   3
   4   5  -4 32.4783 1.59926   3
  -3  -5   4 47.6760 2.03930   3
  -3  -5   4 48.9722 2.00207   3
   3  -5  -4 48.5380 1.89775   3
   3  -5  -4 50.5496 1.98382   3
   3   5  -4 49.8059 2.09255   3
   3   5  -4 46.9922 1.96952   3
  -3   5   4 51.5730 1.75962   3
   2  -5  -4 87.7078 3.19933   3
  -2  -5   4 92.0977 3.36837   3
   2  -5  -4 87.6999 3.27351   3
  -2  -5   4 86.7176 3.28016   3
   2   5  -4 89.3912 3.36147   3
  -2   5   4 89.0957 3.11725   3
   2   5  -4 86.7727 3.26118   3
  -2   5   4 90.9484 3.08317   3
  -1  -5   4 84.0369 3.20120   3
   1  -5  -4 84.3307 3.05246   3
  -1  -5   4 88.9957 3.13379   3
  -1   5   4 82.3485 3.02810   3
   1   5  -4 82.5895 3.09516   3
  -1   5   4 85.9712 2.97091   3
   0  -5   4 10.9463 0.69986   3
   0  -5  -4 10.6720 0.57740   3
   0  -5   4 10.7298 0.63550   3
   0   5   4 10.3764 0.61915   3
   0   5   4 10.3654 0.52858   3
   0   5  -4 11.1928 0.60360   3
  -1  -5  -4 0.31035 0.17863   3
   1  -5   4 0.48941 0.21662   3
   1   5   4 0.35236 0.17644   3
  -1   5  -4 0.23881 0.18540   3
  -2  -5  -4 2.19386 0.32759   3
   2  -5   4 2.07645 0.34906   3
   2   5   4 1.73871 0.29959   3
  -2   5  -4 2.22358 0.31022   3
  -3  -5  -4 42.5810 1.87993   3
   3  -5   4 44.7100 1.77625   3
  -3  -5  -4 44.3886 1.80198   3
   3   5   4 44.2720 1.80332   3
  -3   5  -4 44.1454 1.74318   3
  -3   5  -4 46.2368 1.76928   3
   4  -5   4 56.3095 2.16542   3
  -4  -5  -4 56.4345 2.60895   2
  -4  -5  -4 54.0798 2.19760   3
  -4   5  -4 52.2666 2.78027   2
  -4   5  -4 54.3716 2.11006   3
  -4   5  -4 55.9051 2.11730   3
   4   5   4 53.0778 2.21117   3
  -5  -5  -4 26.0987 1.32627   3
  -5   5  -4 30.6110 1.91971   2
  -5   5  -4 26.6653 1.23973   3
  -5   5  -4 27.1518 1.27028   3
  -6  -5  -4 45.9275 2.01532   3
  -6   5  -4 41.8128 2.42550   2
  -6   5  -4 44.3777 1.82368   3
  -7  -5  -4 12.8257 1.15326   3
  -7   5  -4 14.8186 1.27464   3
   8  -6  -4 3.97199 0.79499   3
  -8  -6   4 2.16706 0.69434   3
   8   6  -4 3.29912 0.76357   3
   7  -6  -4 2.94489 0.56143   3
  -7  -6   4 1.87443 0.58633   3
   7   6  -4 1.57507 0.56619   3
   6  -6  -4 5.72003 1.28323   3
  -6  -6   4 4.13228 0.64833   3
   6  -6  -4 3.93825 0.54270   3
   6   6  -4 5.89447 0.71916   3
   5  -6  -4 17.2546 1.06163   3
   5  -6  -4 15.6258 1.73039   2
  -5  -6   4 16.3562 1.14450   3
   5  -6  -4 16.8555 0.91052   3
   5   6  -4 18.3611 1.03977   3
  -4  -6   4 22.6508 1.19031   3
  -4  -6   4 20.5828 1.14668   3
   4  -6  -4 21.8063 1.01271   3
   4  -6  -4 21.7675 1.12702   3
   4   6  -4 21.1202 1.28713   3
   4   6  -4 22.7337 1.12240   3
  -3  -6   4 5.07586 0.55963   3
  -3  -6   4 4.92159 0.57285   3
   3  -6  -4 3.69254 0.39796   3
   3  -6  -4 4.49817 0.53978   3
   3   6  -4 4.53607 0.57954   3
   3   6  -4 5.01259 0.49588   3
   2  -6  -4 10.3919 0.56900   3
  -2  -6   4 10.5924 0.75489   3
  -2  -6   4 9.92308 0.67904   3
   2   6  -4 10.6388 0.63616   3
   2   6  -4 9.98675 0.75883   3
   1  -6  -4 20.2420 0.89740   3
  -1  -6   4 20.1741 0.98793   3
  -1  -6   4 20.4560 1.06070   3
  -1   6   4 20.9645 0.80537   3
   1   6  -4 20.3304 0.93973   3
  -1   6   4 20.2511 0.85268   3
   0  -6   4 4.16877 0.43606   3
   0  -6  -4 3.84482 0.35426   3
   0  -6   4 4.03852 0.50706   3
   0   6  -4 4.06733 0.37337   3
   0   6   4 4.18457 0.39667   3
   0   6   4 3.78003 0.32002   3
  -1  -6  -4 71.7117 2.71686   3
   1  -6   4 74.7004 2.74585   3
  -1   6  -4 73.9078 2.70190   3
   1   6   4 74.8856 2.68628   3
  -2  -6  -4 17.2219 0.87202   3
   2  -6   4 18.2326 0.88928   3
   2   6   4 17.8223 0.86958   3
  -2   6  -4 18.0967 0.82865   3
  -3  -6  -4 -0.1710 0.30979   3
  -3  -6  -4 0.22656 0.22872   3
   3  -6   4 0.08136 0.27198   3
   3   6   4 0.52924 0.28082   3
  -3   6  -4 0.03860 0.21169   3
  -3   6  -4 0.04775 0.27379   3
  -4  -6  -4 54.3244 2.63291   2
   4  -6   4 53.6590 2.15185   3
  -4   6  -4 52.7390 2.06385   3
  -4   6  -4 54.9974 2.07056   3
  -4   6  -4 55.6203 2.92583   2
  -5  -6  -4 0.50822 0.39040   3
  -5  -6  -4 0.57592 0.61695   2
  -5   6  -4 0.94289 0.30938   3
  -5   6  -4 0.89350 0.73936   2
  -5   6  -4 0.54701 0.35909   3
  -6  -6  -4 31.7070 1.55278   3
  -6   6  -4 26.1976 2.03114   2
  -6   6  -4 29.5096 1.28773   3
  -7  -6  -4 2.21846 0.61413   3
   8  -7  -4 1.12784 0.72638   3
  -8  -7   4 0.90944 0.79058   3
   8   7  -4 1.08121 0.67628   3
  -7  -7   4 2.99866 0.70796   3
   7  -7  -4 2.04701 0.75289   3
   7   7  -4 2.17937 0.91088   2
   7   7  -4 2.16116 0.57876   3
   6  -7  -4 23.2987 1.22536   3
   6  -7  -4 22.4479 1.44051   3
  -6  -7   4 24.7497 1.37672   3
   6   7  -4 24.7445 1.34965   3
   5  -7  -4 0.48673 0.47769   3
   5  -7  -4 0.91302 0.34661   3
  -5  -7   4 1.07578 0.44155   3
   5   7  -4 0.83245 0.46643   3
  -4  -7   4 0.66622 0.37864   3
   4  -7  -4 1.47434 0.83858   2
   4  -7  -4 0.13614 0.36639   3
   4  -7  -4 0.91748 0.26316   3
   4   7  -4 0.27001 0.50986   3
   4   7  -4 0.12518 0.28030   3
   3  -7  -4 1.73523 0.28839   3
   3  -7  -4 1.74558 0.38766   3
  -3  -7   4 1.60669 0.41318   3
  -3  -7   4 2.08419 0.43948   3
   3  -7  -4 0.82496 0.68098   2
   3   7  -4 1.61634 0.31914   3
   3   7  -4 1.55384 0.44621   3
  -2  -7   4 108.758 3.92930   3
   2  -7  -4 106.837 3.78906   3
  -2  -7   4 105.556 3.98450   3
   2   7  -4 105.272 3.87020   3
   1  -7  -4 108.329 3.90545   3
  -1  -7   4 112.598 4.02203   3
  -1  -7   4 109.086 4.09331   3
   1   7  -4 111.318 3.96468   3
   0  -7   4 0.69291 0.26243   3
   0  -7   4 0.01870 0.26558   3
   0  -7  -4 0.80488 0.22403   3
   0   7   4 0.58502 0.23715   3
   0   7  -4 0.68617 0.21650   3
   0   7   4 0.99274 0.19114   3
  -1  -7  -4 5.15262 0.41781   3
   1  -7   4 4.00527 0.47238   3
   1   7   4 3.93583 0.43474   3
  -1   7  -4 4.55951 0.38594   3
  -2  -7  -4 2.09797 0.32797   3
  -2  -7  -4 3.49740 0.82749   2
   2  -7   4 3.31341 0.43359   3
  -2   7  -4 2.73853 0.33953   3
  -2   7  -4 2.53483 0.34915   3
   2   7   4 3.21099 0.40472   3
   3  -7   4 12.8619 0.77262   3
  -3  -7  -4 13.0421 0.90937   3
  -3  -7  -4 13.2647 0.76977   3
  -3  -7  -4 12.6166 1.29920   2
  -3   7  -4 12.3541 0.64099   3
  -3   7  -4 12.7748 1.34501   2
   3   7   4 11.9360 0.78569   3
  -3   7  -4 12.8926 0.66855   3
   4  -7   4 0.02139 0.35447   3
  -4  -7  -4 0.38097 0.32335   3
  -4  -7  -4 0.73912 0.65209   2
   4   7   4 -0.0869 0.41689   3
  -4   7  -4 0.41488 0.59865   2
  -4   7  -4 0.57256 0.22724   3
  -4   7  -4 -0.0040 0.26645   3
  -5  -7  -4 0.25892 0.35769   3
  -5  -7  -4 1.12511 0.72976   2
  -5   7  -4 0.49052 0.77389   2
  -5   7  -4 0.38161 0.31516   3
  -5   7  -4 -0.1761 0.24314   3
  -6  -7  -4 1.04027 0.50419   3
  -6   7  -4 0.60561 0.93268   2
  -7  -7  -4 78.4374 3.24838   3
  -7  -8   4 17.8878 1.30605   3
   7   8  -4 13.1853 1.19925   3
   7   8  -4 18.2458 1.78565   2
   6  -8  -4 11.4389 0.83870   3
   6  -8  -4 11.3423 1.12335   3
  -6  -8   4 12.3204 1.05430   3
   6   8  -4 11.6695 1.47468   2
   6   8  -4 10.9014 0.95571   3
   5  -8  -4 156.418 5.55192   3
  -5  -8   4 158.164 5.76731   3
   5  -8  -4 151.830 5.62932   3
   5   8  -4 158.568 5.72322   3
  -4  -8   4 1.07672 0.39491   3
   4  -8  -4 0.63528 0.39398   3
   4  -8  -4 0.63328 0.27900   3
   4   8  -4 0.36378 0.54977   3
   4   8  -4 0.60260 0.30116   3
  -3  -8   4 17.7192 1.02117   3
   3  -8  -4 15.5975 1.64804   2
  -3  -8   4 16.3558 1.02267   3
   3  -8  -4 18.0255 0.82559   3
   3  -8  -4 18.2371 0.93735   3
   3   8  -4 16.5216 0.92565   3
   3   8  -4 16.2751 1.08618   3
   2  -8  -4 3.34056 0.35624   3
   2  -8  -4 2.59492 0.80860   2
  -2  -8   4 4.80608 0.55483   3
  -2  -8   4 3.96938 0.55571   3
   2   8  -4 4.26158 0.45823   3
   1  -8  -4 0.85223 0.61903   2
  -1  -8   4 1.84973 0.39942   3
  -1  -8   4 1.69294 0.37395   3
   1  -8  -4 1.61494 0.26058   3
   1   8  -4 1.68955 0.29679   3
   0  -8  -4 24.7393 1.77660   2
   0  -8  -4 21.8887 0.97255   3
   0  -8   4 20.9137 1.12198   3
   0  -8   4 21.4484 1.06430   3
   0   8   4 21.4446 0.91943   3
   0   8  -4 22.5137 0.97059   3
   0   8   4 21.6718 0.87562   3
  -1  -8  -4 0.23495 0.21426   3
  -1  -8  -4 0.45193 0.59624   2
   1  -8   4 0.25487 0.28388   3
  -1   8  -4 0.35916 0.18938   3
   1   8   4 0.52143 0.23135   3
  -2  -8  -4 223.274 7.94447   3
   2  -8   4 229.510 7.84406   3
  -2  -8  -4 223.664 7.84330   3
  -2  -8  -4 215.589 8.63329   2
  -2   8  -4 231.282 7.72776   3
   2   8   4 229.145 7.81745   3
  -2   8  -4 222.358 7.71260   3
   3  -8   4 71.1914 2.72520   3
  -3  -8  -4 65.2349 3.40593   2
  -3  -8  -4 74.0037 2.77879   3
  -3   8  -4 74.0344 2.57415   3
  -3   8  -4 77.3199 3.77077   2
   3   8   4 71.4407 2.76684   3
  -4  -8  -4 30.9687 1.98661   2
   4  -8   4 32.8842 1.36482   3
  -4   8  -4 23.0357 1.96867   2
   4   8   4 26.8506 1.59550   3
  -5  -8  -4 -0.1217 0.37697   3
  -5   8  -4 -0.1062 0.82728   2
  -6  -8  -4 8.32783 0.92560   3
  -6   8  -4 8.00185 1.66890   2
  -7  -8  -4 1.95653 0.78812   3
  -7  -9   4 0.77531 0.59424   3
   7   9  -4 1.11314 0.62743   3
   6  -9  -4 103.415 3.72872   3
   6   9  -4 99.6396 3.91974   3
   6   9  -4 95.1358 4.59862   2
  -5  -9   4 14.3655 1.05741   3
   5  -9  -4 14.8069 0.83877   3
   5  -9  -4 13.0127 1.02822   3
   5   9  -4 14.7735 1.53752   2
   5   9  -4 14.6229 0.99349   3
   4  -9  -4 1.09164 0.43734   3
   4  -9  -4 0.07932 0.26319   3
   4   9  -4 0.32864 0.33675   3
   3  -9  -4 33.3540 1.44580   3
   3  -9  -4 32.6916 1.33736   3
  -3  -9   4 32.1685 1.56487   3
   3   9  -4 32.4670 1.62261   3
   3   9  -4 33.6673 1.47245   3
   2  -9  -4 25.6135 1.10232   3
  -2  -9   4 27.4653 1.35453   3
  -2  -9   4 27.7908 1.30860   3
   2   9  -4 25.4207 1.19328   3
   1  -9  -4 14.7558 0.71973   3
  -1  -9   4 15.2369 0.94498   3
   1  -9  -4 12.7058 1.49086   2
  -1  -9   4 14.6349 0.88128   3
   1   9  -4 16.4556 0.78159   3
   0  -9  -4 0.49818 0.20802   3
   0  -9  -4 -0.7578 0.64249   2
   0  -9   4 0.45344 0.31385   3
   0  -9   4 0.04195 0.32396   3
   0   9  -4 0.31339 0.20722   3
   1  -9   4 32.8894 1.37746   3
   1  -9   4 32.7379 1.46301   3
  -1  -9  -4 31.3756 1.30726   3
  -1  -9  -4 30.4668 2.10831   2
   1   9   4 30.6032 1.24001   3
  -1   9  -4 30.9132 1.20486   3
  -1   9  -4 25.8997 2.02019   2
  -2  -9  -4 180.936 6.52742   3
  -2  -9  -4 181.940 6.63047   3
   2  -9   4 183.010 6.52287   3
  -2  -9  -4 210.187 7.60985   2
  -2   9  -4 171.375 7.57661   2
   2   9   4 185.830 6.49475   3
  -3  -9  -4 74.8022 3.71998   2
  -3  -9  -4 76.3572 2.94417   3
   3  -9   4 75.8255 2.89177   3
  -3   9  -4 78.9511 3.99467   2
   3   9   4 77.9756 2.94748   3
  -4  -9  -4 -0.1104 0.35629   3
  -4  -9  -4 0.00695 0.79782   2
   4  -9   4 0.41607 0.43887   3
  -4   9  -4 -0.1830 0.68293   2
  -5  -9  -4 2.96763 0.60664   3
  -5   9  -4 4.94571 1.24825   2
  -6  -9  -4 2.18130 0.65136   3
  -6   9  -4 0.51956 1.19740   2
  -7 -10   4 0.27289 0.65683   3
   7 -10  -4 0.15256 0.96345   3
   7  10  -4 1.25500 0.67955   3
  -6 -10   4 24.6371 1.53772   3
   6 -10  -4 26.4701 1.30067   3
   6  10  -4 25.9821 1.52100   3
   6  10  -4 25.6297 2.19130   2
  -5 -10   4 74.1337 3.05049   3
   5 -10  -4 74.0351 2.77607   3
   5 -10  -4 70.8798 2.89900   3
   5  10  -4 74.2663 3.85532   2
   5  10  -4 74.9347 2.97942   3
   4 -10  -4 9.00467 0.59941   3
  -4 -10   4 7.76716 0.84267   3
   4 -10  -4 6.79681 0.79733   3
   4  10  -4 8.38880 1.27189   2
   4  10  -4 7.99338 0.71547   3
  -3 -10   4 153.519 5.64331   3
   3 -10  -4 151.551 5.35900   3
   3  10  -4 154.966 6.56886   2
   3  10  -4 153.033 5.49929   3
   2 -10  -4 1.27387 0.26477   3
  -2 -10   4 1.27180 0.46482   3
  -2 -10   4 0.92444 0.38720   3
   2  10  -4 1.10991 0.64617   2
   2  10  -4 1.02902 0.31826   3
  -1 -10   4 1.67820 0.45460   3
  -1 -10   4 2.86520 0.49375   3
   1 -10  -4 2.04218 0.29300   3
   1  10  -4 1.40375 0.62250   2
   1  10  -4 1.62910 0.30594   3
   0 -10  -4 220.567 9.61694   2
   0 -10   4 244.900 8.72003   3
   0 -10  -4 243.656 8.52109   3
   0 -10   4 246.250 8.62493   3
   0  10  -4 242.221 8.46943   3
   0  10  -4 285.951 10.0173   2
  -1 -10  -4 44.5238 1.73877   3
  -1 -10  -4 44.5392 2.73222   2
   1 -10   4 45.2319 1.81242   3
   1 -10   4 42.9066 1.88160   3
  -1  10  -4 40.4258 2.67602   2
   1  10   4 44.3525 1.63733   3
   1  10   4 41.2204 1.66181   3
  -2 -10  -4 46.6229 2.83561   2
  -2 -10  -4 47.5265 2.05280   3
   2 -10   4 48.5304 1.94903   3
  -2 -10  -4 48.7929 1.94824   3
  -2  10  -4 46.9302 2.94548   2
   2  10   4 48.8902 1.89976   3
  -3 -10  -4 40.7993 1.70180   3
  -3 -10  -4 37.6961 2.50488   2
   3 -10   4 38.0205 1.65430   3
   3  10   4 39.0615 1.69764   3
  -4 -10  -4 5.39113 1.22153   2
  -4 -10  -4 5.15236 0.66279   3
  -4  10  -4 3.56335 1.08001   2
  -5 -10  -4 0.61254 0.44802   3
  -6 -10  -4 67.2584 2.91619   3
  -6  10  -4 71.2786 4.11540   2
  -7 -11   4 12.0448 1.52489   3
   7  11  -4 13.5659 1.38095   3
  -6 -11   4 1.80493 0.64723   3
   6 -11  -4 3.83383 0.58178   3
   6  11  -4 4.44029 0.76471   3
   6  11  -4 2.99914 1.23246   2
   5 -11  -4 5.99965 0.61000   3
  -5 -11   4 4.39460 0.71712   3
   5  11  -4 4.35116 1.25756   2
   5  11  -4 6.25460 0.81632   3
   4 -11  -4 153.626 5.47859   3
   4 -11  -4 154.698 5.56864   3
  -4 -11   4 158.240 5.81506   3
   4  11  -4 156.937 5.67707   3
   4  11  -4 157.600 6.83887   2
   3 -11  -4 2.56758 0.34232   3
  -3 -11   4 1.65815 0.55708   3
   3  11  -4 1.83115 0.80602   2
   3  11  -4 2.68345 0.46073   3
   2 -11  -4 0.78813 0.25084   3
  -2 -11   4 1.22909 0.40858   3
   2  11  -4 1.41571 0.82034   2
   2  11  -4 0.66260 0.31329   3
   1 -11  -4 0.93547 0.26843   3
  -1 -11   4 0.96661 0.42598   3
  -1 -11   4 0.93483 0.43601   3
   1  11  -4 0.76026 0.56789   2
   1  11  -4 1.36463 0.28747   3
   0 -11   4 33.6798 1.58873   3
   0 -11   4 32.2810 1.50815   3
   0 -11  -4 32.2246 1.36688   3
   0  11  -4 35.0735 2.46539   2
   0  11  -4 32.5092 1.27550   3
   1 -11   4 120.992 4.47361   3
  -1 -11  -4 128.388 4.43335   3
   1 -11   4 123.314 4.58142   3
  -1  11  -4 119.490 5.71954   2
  -2 -11  -4 31.1127 1.42005   3
   2 -11   4 31.3648 1.45609   3
  -2  11  -4 36.4196 2.53581   2
   2  11   4 30.2619 1.37724   3
  -3 -11  -4 27.5468 2.34995   2
   3 -11   4 27.9789 1.34366   3
  -3 -11  -4 27.1995 1.56924   3
   3  11   4 29.1805 1.39340   3
  -4 -11  -4 35.7918 3.82380   2
  -4 -11  -4 33.9313 1.63165   3
  -4  11  -4 36.8816 2.70539   2
   4  11   4 31.5773 1.86371   3
  -5 -11  -4 78.8499 3.29848   3
  -5  11  -4 85.5556 4.57717   2
  -6 -11  -4 4.89567 0.84442   3
  -6  11  -4 7.62015 1.99406   2
  -6 -12   4 -0.2562 0.71455   3
   6  12  -4 -0.1281 1.20088   2
   6  12  -4 0.84893 0.70834   3
  -5 -12   4 1.68987 0.67108   3
   5 -12  -4 1.65964 0.44172   3
   5  12  -4 2.32048 1.40959   2
   5  12  -4 2.68587 0.65025   3
  -4 -12   4 3.49367 0.63306   3
   4 -12  -4 2.54979 0.39799   3
   3 -12  -4 84.7279 3.14265   3
  -3 -12   4 83.9731 3.45782   3
   3  12  -4 88.1932 4.85965   2
   3  12  -4 91.2317 3.30744   3
  -2 -12   4 20.3527 1.23440   3
   2 -12  -4 20.0575 0.94405   3
   2  12  -4 20.2327 1.98710   2
   2  12  -4 22.5963 1.04042   3
  -1 -12   4 16.6657 1.06862   3
  -1 -12   4 21.3421 1.37494   3
   1 -12  -4 16.1076 0.82751   3
   1  12  -4 18.0243 0.82703   3
   1  12  -4 14.4406 1.77761   2
   0 -12   4 70.9831 2.82138   3
   0 -12  -4 73.0736 2.61150   3
   0 -12   4 67.7609 2.73494   3
   0  12  -4 65.1930 4.46014   2
  -1 -12  -4 19.6740 0.98636   3
   1 -12   4 18.8841 1.09932   3
   1 -12   4 19.4643 1.16958   3
  -1 -12  -4 19.8203 1.13311   3
  -1  12  -4 19.4047 1.97035   2
   2 -12   4 13.7940 0.98283   3
   2 -12   4 12.8874 0.90276   3
  -2 -12  -4 12.1413 0.80187   3
   2  12   4 11.5099 0.75399   3
  -2  12  -4 12.1931 1.64490   2
   3 -12   4 2.96155 0.54313   3
  -3 -12  -4 2.80513 0.49297   3
   3  12   4 2.18202 0.71402   3
  -4 -12  -4 1.00616 0.51073   3
  -4  12  -4 0.54472 1.07399   2
  -5 -12  -4 0.57405 0.63460   3
  -5  12  -4 0.94510 1.35196   2
  -6 -13   4 16.8328 1.58033   3
   6  13  -4 19.6907 2.47858   2
   6  13  -4 19.5245 1.51275   3
  -5 -13   4 0.73083 0.62715   3
   5  13  -4 -0.1346 1.18665   2
   5  13  -4 0.26822 0.60646   3
  -4 -13   4 2.47890 0.67430   3
   4 -13  -4 1.92682 0.39524   3
   4  13  -4 2.04219 1.04246   2
   3 -13  -4 39.0106 1.59332   3
  -3 -13   4 39.5086 1.94932   3
   3  13  -4 41.2039 2.89982   2
   3  13  -4 41.1552 1.74639   3
   2 -13  -4 0.35578 0.28590   3
   2  13  -4 -0.0567 0.31818   3
   2  13  -4 0.24654 0.75652   2
  -1 -13   4 3.18186 0.56484   3
   1 -13  -4 2.25898 0.36362   3
   1  13  -4 3.56356 1.17317   2
   0 -13  -4 52.5413 2.04070   3
   0 -13   4 54.1340 2.28144   3
   0 -13   4 53.3589 2.36462   3
   0  13  -4 48.5662 3.27685   2
   1 -13   4 0.48076 0.51418   3
  -1 -13  -4 1.11389 0.52623   3
   1 -13   4 0.20560 0.44402   3
  -1 -13  -4 1.03770 0.35832   3
  -1  13  -4 0.43882 0.86382   2
  -2 -13  -4 0.64260 0.37504   3
   2 -13   4 0.23402 0.52766   3
   2 -13   4 0.02967 0.48778   3
  -2  13  -4 1.14981 0.99824   2
  -3 -13  -4 76.9286 3.11720   3
  -3  13  -4 82.6107 4.62577   2
  -4 -13  -4 1.25854 0.62218   3
  -4  13  -4 1.68317 1.33290   2
  -5 -13  -4 14.7866 1.23313   3
  -5  13  -4 13.9883 2.57620   2
  -5 -14   4 0.38105 0.74642   3
   5  14  -4 0.12823 1.29155   2
   5  14  -4 0.63175 0.74347   3
  -4 -14   4 8.77911 1.12908   3
   4  14  -4 5.81109 1.53622   2
  -3 -14   4 14.2793 1.20752   3
   3  14  -4 13.6394 1.98582   2
   3  14  -4 16.4708 0.98274   3
  -2 -14   4 12.4337 1.08141   3
   2 -14  -4 12.2911 0.74785   3
   2  14  -4 12.4482 0.75469   3
   2  14  -4 12.4814 1.84822   2
  -1 -14   4 38.8879 1.85518   3
   1 -14  -4 38.0102 1.56470   3
   1  14  -4 36.7882 2.86884   2
   0 -14  -4 51.0353 2.18752   3
   0 -14   4 53.6718 2.29895   3
   0 -14  -4 52.2713 2.05220   3
   0  14  -4 49.8766 3.45522   2
   1 -14   4 14.7583 1.13453   3
  -1 -14  -4 15.9684 0.93142   3
  -1  14  -4 13.9075 1.94387   2
  -2 -14  -4 8.69210 0.80551   3
   2 -14   4 8.29799 1.02157   3
  -2  14  -4 7.80594 1.78795   2
   3 -14   4 21.7008 1.42292   3
  -3 -14  -4 20.1719 1.27948   3
  -3  14  -4 21.8501 2.55086   2
  -4 -14  -4 33.4276 1.73700   3
  -4  14  -4 33.9351 3.11712   2
  -5 -15   4 19.7028 1.72840   3
   5  15  -4 25.3391 2.87500   2
   5  15  -4 21.6472 1.75788   3
  -4 -15   4 5.75945 0.89049   3
   4  15  -4 5.25756 1.08679   3
   4  15  -4 7.10821 1.92846   2
  -3 -15   4 34.3715 1.90883   3
   3  15  -4 36.0771 1.63157   3
   3  15  -4 36.2115 3.06903   2
   2 -15  -4 22.0181 1.08264   3
  -2 -15   4 24.8852 1.47728   3
   2  15  -4 21.1661 2.43490   2
   1 -15  -4 10.0767 0.73602   3
  -1 -15   4 10.4087 1.07408   3
   1  15  -4 9.18005 1.82869   2
   0 -15  -4 5.59180 0.66494   3
   0 -15   4 6.45335 0.81918   3
   0  15  -4 7.89306 1.80716   2
  -1 -15  -4 0.40688 0.44496   3
   1 -15   4 -0.7584 0.59386   3
  -1  15  -4 -0.3030 1.08293   2
   2 -15   4 67.8833 2.79524   3
  -2 -15  -4 68.9159 2.64142   3
  -2  15  -4 55.3921 4.04942   2
   3 -15   4 59.1184 2.68521   3
  -3 -15  -4 54.0909 2.54734   3
  -3  15  -4 68.6718 4.31940   2
  -4 -15  -4 1.76428 0.70894   3
  -4  15  -4 2.12271 1.69106   2
  -4 -16   4 2.42379 0.83762   3
   4  16  -4 1.48017 1.50292   2
  -3 -16   4 4.20979 0.88887   3
   3  16  -4 -0.3588 1.39454   2
  -2 -16   4 4.03997 0.85201   3
   2  16  -4 4.48038 1.72285   2
  -1 -16   4 9.79049 1.16704   3
   1 -16  -4 7.39508 0.77222   3
   1  16  -4 8.06968 1.90516   2
   0 -16  -4 10.1116 0.83930   3
   0 -16   4 9.93063 1.15955   3
   0  16  -4 12.6325 2.06845   2
   1 -16   4 0.68058 0.73049   3
  -1  16  -4 1.09812 1.13510   2
   2 -16   4 6.19681 0.93685   3
  -2 -16  -4 5.11413 0.76282   3
  -2  16  -4 2.85735 1.54329   2
  -3 -16  -4 43.0631 2.06966   3
  -3  16  -4 42.6239 3.65358   2
  -3 -17   4 6.64055 1.01780   3
   3  17  -4 5.82340 1.87176   2
  -2 -17   4 4.44226 0.94257   3
   2  17  -4 3.40465 1.76012   2
  -1 -17   4 6.43847 0.99192   3
   1  17  -4 4.84442 1.50590   2
   0 -17   4 3.97205 0.87962   3
   0 -17  -4 3.88893 0.69689   3
   0  17  -4 4.91710 1.83592   2
   1 -17   4 0.55800 0.78228   3
  -1 -17  -4 0.41862 0.59514   3
  -1  17  -4 0.68406 1.47281   2
  -2 -17  -4 30.5359 1.74850   3
  -2  17  -4 36.7382 3.44068   2
  -8   0   5 -0.8147 0.62764   3
   8   0  -5 0.66110 0.63478   3
  -7   0   5 0.05231 0.54631   3
   7   0  -5 -0.6920 0.49312   3
  -6   0   5 -0.0767 0.34982   3
  -6   0   5 0.69188 0.56716   3
   6   0  -5 0.37764 0.36669   3
   5   0  -5 -0.1456 0.29119   3
  -5   0   5 0.22429 0.40930   3
  -5   0   5 0.10443 0.32085   3
  -4   0   5 0.37524 0.35616   3
   4   0  -5 0.12029 0.25530   3
  -4   0   5 0.10789 0.30006   3
   4   0  -5 0.13721 0.43044   3
   3   0  -5 0.18417 0.23196   3
   3   0  -5 -0.7325 0.31517   3
  -3   0   5 -0.1105 0.26302   3
  -3   0   5 -0.0494 0.28254   3
  -2   0   5 0.29049 0.28437   3
  -2   0   5 0.07711 0.24865   3
   2   0  -5 -0.2444 0.18869   3
  -1   0   5 -0.0960 0.21095   3
  -1   0   5 0.13311 0.24464   3
   1   0  -5 0.13875 0.19132   3
   0   0   5 -0.1497 0.18919   3
   0   0  -5 -0.0970 0.18542   3
   0   0   5 -0.1999 0.23157   3
   1   0   5 -0.1039 0.20449   3
  -1   0  -5 -0.0183 0.19557   3
  -2   0  -5 -0.1799 0.22626   3
   2   0   5 0.65495 0.25320   3
  -3   0  -5 0.20281 0.27333   3
   3   0   5 0.22271 0.28049   3
  -4   0  -5 -0.1877 0.40075   3
  -4   0  -5 -0.3272 0.30012   3
  -5   0  -5 0.04478 0.38174   3
  -6   0  -5 -0.1605 0.47892   3
  -7   0  -5 0.66119 0.72163   3
  -8  -1   5 30.3047 1.71833   3
   8  -1  -5 26.4835 1.70285   3
  -8   1   5 30.9487 1.56379   3
   8   1  -5 32.0378 1.74420   3
   7  -1  -5 38.3341 1.87799   3
  -7  -1   5 37.0010 1.74256   3
   7   1  -5 37.2076 1.87288   3
  -7   1   5 37.4085 1.68219   3
  -6  -1   5 35.8844 1.65052   3
   6  -1  -5 39.0030 1.74702   3
   6   1  -5 36.3890 1.73342   3
  -6   1   5 36.4807 1.58930   3
  -6   1   5 34.6665 1.67291   3
  -5  -1   5 2.94785 0.54238   3
   5  -1  -5 3.49894 0.53146   3
  -5  -1   5 2.85714 0.45152   3
  -5   1   5 3.14671 0.44654   3
  -5   1   5 2.10576 0.48648   3
   5   1  -5 2.61670 0.46402   3
   4  -1  -5 26.0440 1.24452   3
  -4  -1   5 25.0341 1.24292   3
  -4  -1   5 26.0074 1.27589   3
   4  -1  -5 26.0012 1.37651   3
  -4   1   5 27.2104 1.21290   3
   4   1  -5 25.8895 1.25431   3
   4   1  -5 24.9403 1.38771   3
  -4   1   5 25.0911 1.20799   3
  -3  -1   5 7.26505 0.63936   3
   3  -1  -5 7.10511 0.57678   3
  -3  -1   5 7.72665 0.62492   3
   3  -1  -5 7.06661 0.70554   3
  -3   1   5 7.06242 0.59829   3
   3   1  -5 7.91439 0.72453   3
  -3   1   5 7.87925 0.59129   3
   3   1  -5 7.92314 0.59975   3
  -2  -1   5 0.27679 0.27274   3
  -2  -1   5 0.04550 0.28614   3
   2  -1  -5 0.08970 0.19016   3
   2   1  -5 -0.0975 0.20874   3
  -2   1   5 0.00448 0.22588   3
  -2   1   5 -0.2869 0.24452   3
   1  -1  -5 21.3582 1.02569   3
  -1  -1   5 22.0964 1.02431   3
  -1  -1   5 22.2058 1.11769   3
   1   1  -5 22.8078 1.04922   3
  -1   1   5 22.1032 1.09119   3
  -1   1   5 21.5194 0.98543   3
   0  -1  -5 11.1140 0.66892   3
   0  -1   5 11.9899 0.78450   3
   0  -1   5 10.7972 0.65056   3
   0   1   5 12.1505 0.64926   3
   0   1  -5 11.8558 0.69141   3
   0   1   5 11.4416 0.76421   3
   1  -1   5 32.3948 1.36033   3
   1   1   5 31.7624 1.33775   3
  -1   1  -5 32.6757 1.39607   3
  -2  -1  -5 111.483 4.00505   3
   2  -1   5 107.699 3.95438   3
  -2   1  -5 108.890 3.99646   3
   2   1   5 109.520 3.95789   3
  -3  -1  -5 121.529 4.31271   3
   3  -1   5 116.360 4.26542   3
  -3   1  -5 117.640 4.34672   3
  -3   1  -5 120.815 4.30492   3
   3   1   5 111.204 4.24814   3
  -4  -1  -5 153.393 5.53114   3
  -4   1  -5 158.143 5.52501   3
  -4   1  -5 146.692 5.53772   3
  -5  -1  -5 1.46665 0.43788   3
  -6  -1  -5 1.74316 0.55244   3
  -6   1  -5 1.11075 0.52736   3
  -7  -1  -5 3.63097 0.78915   3
  -7   1  -5 4.25744 0.82310   3
   8  -2  -5 28.7443 1.72420   3
  -8  -2   5 31.2695 1.74917   3
   8   2  -5 30.8415 1.77802   3
   7  -2  -5 11.2901 1.03422   3
  -7  -2   5 12.2017 0.98693   3
  -7   2   5 9.41272 0.83559   3
   7   2  -5 11.0141 1.02016   3
  -6  -2   5 -0.2087 0.47431   3
   6  -2  -5 0.04424 0.39720   3
   6   2  -5 -0.0615 0.37819   3
  -6   2   5 0.09730 0.34471   3
  -6   2   5 -0.9338 0.46161   3
  -5  -2   5 70.9112 2.81421   3
   5  -2  -5 71.5539 2.81368   3
  -5  -2   5 69.0647 2.82684   3
  -5   2   5 70.8429 2.70948   3
   5   2  -5 72.9064 2.85351   3
  -5   2   5 72.1768 2.69500   3
   4  -2  -5 3.22410 0.60039   3
   4  -2  -5 1.66501 0.36557   3
  -4  -2   5 2.99044 0.48389   3
  -4  -2   5 3.28688 0.49399   3
  -4   2   5 2.45348 0.38878   3
  -4   2   5 2.05616 0.37121   3
   4   2  -5 2.25933 0.61193   3
   4   2  -5 2.32895 0.40107   3
   3  -2  -5 8.69114 0.75830   3
  -3  -2   5 10.3143 0.75096   3
   3  -2  -5 9.46315 0.65298   3
  -3  -2   5 9.71110 0.70059   3
  -3   2   5 8.78702 0.64093   3
   3   2  -5 9.46508 0.78875   3
  -3   2   5 9.69182 0.61887   3
   3   2  -5 10.3934 0.67773   3
  -2  -2   5 36.6620 1.53547   3
   2  -2  -5 36.6436 1.53033   3
  -2  -2   5 35.9594 1.60688   3
  -2   2   5 36.2792 1.54017   3
  -2   2   5 35.2152 1.44952   3
   2   2  -5 36.2020 1.54070   3
  -1  -2   5 13.3759 0.84897   3
   1  -2  -5 13.8922 0.75088   3
  -1  -2   5 14.3532 0.77151   3
   1   2  -5 13.3022 0.76546   3
  -1   2   5 13.5419 0.70017   3
  -1   2   5 14.2927 0.80890   3
   0  -2   5 0.36682 0.27968   3
   0  -2  -5 0.10310 0.19083   3
   0  -2   5 0.38844 0.23351   3
   0   2   5 0.00840 0.24938   3
   0   2  -5 0.62362 0.22858   3
   0   2   5 0.52245 0.20663   3
   1  -2   5 136.036 4.95416   3
  -1  -2  -5 138.888 4.98748   3
   1   2   5 142.812 4.94252   3
  -1   2  -5 140.417 4.99271   3
   2  -2   5 5.57496 0.49436   3
  -2  -2  -5 5.18968 0.49955   3
   2   2   5 4.60592 0.45562   3
  -2   2  -5 5.26547 0.51157   3
  -3  -2  -5 36.6317 1.65977   3
  -3  -2  -5 35.4436 1.55350   3
   3  -2   5 36.3446 1.54006   3
  -3   2  -5 35.8905 1.55225   3
   3   2   5 34.4141 1.52168   3
  -3   2  -5 35.3491 1.60206   3
  -4  -2  -5 102.261 3.72689   3
  -4   2  -5 96.5251 3.70709   3
  -4   2  -5 96.8376 3.67475   3
  -5  -2  -5 1.03897 0.42907   3
  -5   2  -5 1.25755 0.43348   3
  -6  -2  -5 30.5131 1.55535   3
  -6   2  -5 28.5273 1.47226   3
  -6   2  -5 25.9350 1.76023   2
  -7  -2  -5 38.5512 2.01017   3
  -7   2  -5 40.6708 2.02598   3
   8  -3  -5 20.4949 1.47874   3
  -8  -3   5 22.7423 1.48666   3
   8   3  -5 20.1954 1.53027   3
  -7  -3   5 46.7925 2.11119   3
   7  -3  -5 45.0828 2.13520   3
  -7   3   5 46.3401 1.84566   3
  -6  -3   5 0.63332 0.44519   3
   6   3  -5 -0.4365 0.39664   3
  -6   3   5 0.98999 0.42604   3
  -6   3   5 0.10314 0.30747   3
   5  -3  -5 22.8199 1.54391   3
  -5  -3   5 21.8065 1.16978   3
   5  -3  -5 19.2041 1.08196   3
   5   3  -5 17.6883 1.42553   3
  -5   3   5 20.8114 1.00731   3
  -5   3   5 20.1357 0.96196   3
   4  -3  -5 10.8315 0.90519   3
  -4  -3   5 12.0128 0.84888   3
   4  -3  -5 10.4471 0.73460   3
  -4  -3   5 12.1194 0.84303   3
  -4   3   5 13.6697 0.70673   3
   4   3  -5 11.3247 0.77251   3
  -4   3   5 12.1546 0.69669   3
   4   3  -5 10.3952 0.95345   3
   3  -3  -5 32.7803 1.53644   3
  -3  -3   5 33.6690 1.48083   3
  -3  -3   5 33.9858 1.53698   3
   3  -3  -5 33.2931 1.43048   3
   3   3  -5 32.3509 1.45589   3
  -3   3   5 32.0119 1.33128   3
  -3   3   5 32.5980 1.38005   3
   3   3  -5 32.0881 1.58402   3
  -2  -3   5 6.40256 0.56280   3
   2  -3  -5 5.69624 0.50148   3
  -2  -3   5 5.22120 0.61090   3
  -2   3   5 6.66803 0.54236   3
   2   3  -5 7.01708 0.54934   3
  -2   3   5 5.64637 0.45061   3
   1  -3  -5 63.6738 2.40110   3
  -1  -3   5 60.3863 2.40529   3
  -1  -3   5 62.6293 2.51738   3
  -1   3   5 63.9593 2.43776   3
  -1   3   5 64.5487 2.32538   3
   1   3  -5 61.3563 2.41413   3
   0  -3   5 32.1956 1.34812   3
   0  -3   5 30.5131 1.44831   3
   0  -3  -5 29.4397 1.31818   3
   0   3  -5 31.4043 1.35318   3
   0   3   5 31.0386 1.40306   3
   0   3   5 31.8051 1.27583   3
   1  -3   5 79.3215 2.92893   3
  -1  -3  -5 77.4039 2.94028   3
  -1   3  -5 79.2298 2.94611   3
   1   3   5 77.9370 2.87823   3
  -2  -3  -5 -0.4570 0.20347   3
   2  -3   5 -0.1329 0.24515   3
   2   3   5 0.00042 0.23848   3
  -2   3  -5 -0.1367 0.23492   3
  -3  -3  -5 66.2792 2.57640   3
  -3  -3  -5 62.0779 2.64251   3
   3  -3   5 64.4951 2.53755   3
   3   3   5 64.8395 2.53940   3
  -3   3  -5 68.8684 2.60403   3
  -3   3  -5 67.8057 2.55892   3
  -4  -3  -5 73.0806 2.93350   3
  -4   3  -5 78.2195 2.90168   3
  -4   3  -5 73.6063 2.90762   3
  -5  -3  -5 3.85682 0.58051   3
  -5   3  -5 4.57469 0.65037   3
  -5   3  -5 3.79876 0.57138   3
  -6  -3  -5 7.71457 0.89541   3
  -6   3  -5 8.58127 1.29064   2
  -6   3  -5 8.71448 0.89034   3
  -7  -3  -5 -0.4560 0.67797   3
  -7   3  -5 -0.4472 0.71338   3
  -8  -4   5 2.17501 0.77378   3
   8  -4  -5 2.12592 0.72298   3
   8   4  -5 1.98758 0.75348   3
   7  -4  -5 0.11286 0.53127   3
  -7  -4   5 1.08023 0.58755   3
   7   4  -5 1.81464 0.54297   3
  -6  -4   5 14.7320 1.05805   3
   6  -4  -5 15.1193 1.12127   3
   6   4  -5 15.1080 1.04521   3
  -6   4   5 15.5888 0.75739   3
   5  -4  -5 1.90445 0.41091   3
   5  -4  -5 2.25940 0.57890   3
  -5  -4   5 1.08210 0.45151   3
   5   4  -5 1.63330 0.43707   3
  -5   4   5 1.05083 0.34812   3
  -5   4   5 1.38018 0.28485   3
   4  -4  -5 37.2482 1.63824   3
   4  -4  -5 38.3358 1.77521   3
  -4  -4   5 36.2828 1.72878   3
  -4  -4   5 38.7107 1.74949   3
  -4   4   5 39.8510 1.51035   3
  -4   4   5 38.3952 1.51673   3
   4   4  -5 39.7737 1.70702   3
   3  -4  -5 5.31306 0.49469   3
   3  -4  -5 5.33922 0.62854   3
  -3  -4   5 4.50085 0.59068   3
  -3  -4   5 5.81504 0.60506   3
  -3   4   5 4.42490 0.43890   3
   3   4  -5 4.90828 0.52129   3
   3   4  -5 4.86712 0.60461   3
  -3   4   5 5.40619 0.43508   3
   2  -4  -5 6.13699 0.48699   3
  -2  -4   5 5.23795 0.54342   3
  -2  -4   5 5.41608 0.62072   3
  -2   4   5 4.71740 0.47006   3
   2   4  -5 5.05522 0.50280   3
  -1  -4   5 1.00123 0.32825   3
   1  -4  -5 1.18428 0.27653   3
  -1  -4   5 2.05568 0.36472   3
  -1   4   5 1.38066 0.25031   3
   1   4  -5 1.26710 0.27824   3
  -1   4   5 0.71953 0.29710   3
   0  -4   5 79.6560 2.93284   3
   0  -4   5 75.7662 3.03713   3
   0  -4  -5 77.3859 2.90532   3
   0   4   5 77.7322 2.82780   3
   0   4  -5 80.8637 2.93063   3
   0   4   5 76.0500 2.95850   3
   1  -4   5 4.37658 0.48249   3
  -1  -4  -5 5.24410 0.48180   3
   1   4   5 4.40482 0.42781   3
  -1   4  -5 6.12497 0.50467   3
  -2  -4  -5 82.6420 3.15771   3
   2  -4   5 83.7539 3.13577   3
  -2   4  -5 84.6976 3.14725   3
   2   4   5 85.8938 3.11761   3
   3  -4   5 2.29144 0.41095   3
  -3  -4  -5 2.45174 0.41002   3
  -3  -4  -5 0.83265 0.46628   3
  -3   4  -5 2.10074 0.45460   3
   3   4   5 2.23209 0.43186   3
  -3   4  -5 2.90067 0.41096   3
  -4  -4  -5 0.33013 0.51514   3
  -4   4  -5 1.74246 0.39861   3
  -4   4  -5 0.73044 0.41104   3
  -5  -4  -5 0.57696 0.39653   3
  -5   4  -5 0.18348 0.40189   3
  -5   4  -5 0.81434 0.71465   2
  -5   4  -5 0.02823 0.51567   3
  -6  -4  -5 0.18455 0.52626   3
  -6   4  -5 1.25113 0.53095   3
  -6   4  -5 0.79194 0.84183   2
  -7  -4  -5 4.73012 0.84446   3
  -7   4  -5 7.46036 0.89896   3
   8  -5  -5 12.5281 1.31358   3
  -8  -5   5 16.7752 1.36216   3
   8   5  -5 14.5037 1.44590   3
  -7  -5   5 4.70325 0.80056   3
   7  -5  -5 4.75655 0.76242   3
   7   5  -5 4.31847 0.68869   3
   6  -5  -5 3.33183 0.58558   3
  -6  -5   5 1.43246 0.57271   3
   6   5  -5 3.04465 0.56600   3
   5  -5  -5 13.4577 1.09746   3
  -5  -5   5 12.7527 0.96882   3
   5  -5  -5 13.6356 0.86031   3
   5   5  -5 12.3712 0.88933   3
   4  -5  -5 0.48772 0.43698   3
   4  -5  -5 0.28975 0.28951   3
  -4  -5   5 0.40063 0.35350   3
  -4   5   5 0.24909 0.18391   3
   4   5  -5 0.13668 0.29994   3
   3  -5  -5 3.01940 0.40560   3
  -3  -5   5 2.79688 0.49626   3
   3  -5  -5 3.06701 0.51385   3
  -3  -5   5 3.08812 0.47996   3
   3   5  -5 3.33838 0.48582   3
   3   5  -5 2.63815 0.55399   3
  -3   5   5 3.05561 0.32991   3
  -3   5   5 3.01888 0.34338   3
  -2  -5   5 1.23646 0.36320   3
   2  -5  -5 0.62130 0.27149   3
  -2  -5   5 0.35683 0.32966   3
   2   5  -5 0.88719 0.27835   3
  -2   5   5 0.53594 0.24103   3
  -2   5   5 0.79661 0.20769   3
  -1  -5   5 1.88534 0.41096   3
   1  -5  -5 1.91230 0.32845   3
  -1  -5   5 2.06572 0.41062   3
   1   5  -5 2.28468 0.37520   3
  -1   5   5 2.16160 0.34062   3
   0  -5   5 0.29795 0.34979   3
   0  -5  -5 0.01205 0.21089   3
   0  -5   5 -0.2390 0.26466   3
   0   5  -5 0.64836 0.26571   3
   0   5   5 0.68740 0.29399   3
   0   5   5 0.32927 0.21624   3
   1  -5   5 14.2041 0.80803   3
  -1  -5  -5 14.3655 0.79957   3
   1   5   5 14.4846 0.74409   3
  -1   5  -5 13.7951 0.78250   3
   2  -5   5 4.36854 0.50845   3
  -2  -5  -5 3.88661 0.47580   3
  -2   5  -5 4.20497 0.48267   3
   2   5   5 3.82786 0.46487   3
   3  -5   5 2.43660 0.46138   3
  -3  -5  -5 3.10675 0.45098   3
   3   5   5 3.64519 0.49526   3
  -3   5  -5 3.36539 0.44266   3
  -3   5  -5 4.26976 0.57122   3
  -4  -5  -5 43.6104 1.88649   3
  -4   5  -5 43.8866 1.80374   3
  -4   5  -5 42.0625 1.82126   3
  -5  -5  -5 21.8200 1.25157   3
  -5   5  -5 21.9645 1.82283   2
  -5   5  -5 19.7398 1.15964   3
  -5   5  -5 21.8134 1.13132   3
  -6  -5  -5 5.47600 0.76728   3
  -6   5  -5 5.28361 1.24337   2
  -6   5  -5 4.35925 0.64706   3
  -7  -5  -5 15.5930 1.41602   3
  -7  -6   5 17.8680 1.31062   3
   7  -6  -5 18.4882 1.25550   3
   7   6  -5 16.5033 1.29028   3
   6  -6  -5 0.98476 0.43891   3
  -6  -6   5 0.38695 0.51213   3
   6   6  -5 0.08322 0.42453   3
   5  -6  -5 0.24720 0.59307   3
  -5  -6   5 0.51181 0.44148   3
   5  -6  -5 0.78126 0.34972   3
   5   6  -5 0.03777 0.34100   3
  -4  -6   5 5.60302 0.72654   3
   4  -6  -5 6.85016 0.79944   3
   4  -6  -5 6.61431 0.58174   3
   4   6  -5 6.06784 0.63223   3
   3  -6  -5 18.4922 1.05706   3
  -3  -6   5 17.8017 1.05979   3
   3  -6  -5 18.4555 0.91907   3
  -3  -6   5 15.7413 1.02306   3
   3   6  -5 17.1226 0.95714   3
   3   6  -5 16.7036 1.14160   3
   2  -6  -5 51.8537 2.02016   3
  -2  -6   5 48.3463 2.08864   3
  -2  -6   5 54.1862 2.20749   3
   2   6  -5 52.5002 2.07928   3
  -2   6   5 49.8052 1.89205   3
  -2   6   5 51.7441 1.85364   3
  -1  -6   5 6.78678 0.60465   3
  -1  -6   5 6.02627 0.66626   3
   1  -6  -5 5.61003 0.49723   3
   1   6  -5 6.40696 0.54045   3
  -1   6   5 5.78425 0.49282   3
  -1   6   5 6.35813 0.41457   3
   0  -6   5 2.29733 0.39375   3
   0  -6   5 2.79948 0.48148   3
   0  -6  -5 3.30319 0.40041   3
   0   6  -5 3.11523 0.42650   3
   0   6   5 2.03398 0.38822   3
   0   6   5 2.55027 0.34838   3
  -1  -6  -5 2.22054 0.35752   3
   1  -6   5 1.92272 0.38245   3
   1   6   5 1.79994 0.30321   3
  -1   6  -5 2.11179 0.34485   3
  -2  -6  -5 19.5406 0.97870   3
   2  -6   5 18.0377 0.97654   3
   2   6   5 18.2131 0.93897   3
  -2   6  -5 18.2090 0.92313   3
  -3  -6  -5 51.7958 2.13173   3
   3  -6   5 51.0928 2.10657   3
  -3   6  -5 52.5845 2.06590   3
  -3   6  -5 50.6250 2.03688   3
   3   6   5 51.9985 2.10780   3
  -4  -6  -5 7.52497 1.32717   2
  -4  -6  -5 7.06375 0.70228   3
  -4   6  -5 7.47943 1.19251   2
  -4   6  -5 6.37410 0.60633   3
  -4   6  -5 6.40340 0.67067   3
  -5  -6  -5 50.5659 2.15910   3
  -5   6  -5 45.2486 2.81625   2
  -5   6  -5 49.2543 1.98126   3
  -6  -6  -5 45.8516 2.14681   3
  -6   6  -5 45.0164 1.94680   3
  -6   6  -5 46.8910 2.96068   2
  -7  -6  -5 53.1698 2.61105   3
   7  -7  -5 7.41281 1.02695   3
  -7  -7   5 10.8997 1.18171   3
   7   7  -5 8.01450 1.04680   3
  -6  -7   5 -0.3148 0.54389   3
   6  -7  -5 0.56085 0.45503   3
   6   7  -5 0.66012 0.49738   3
   5  -7  -5 5.23725 0.62048   3
  -5  -7   5 6.06577 0.81102   3
   5  -7  -5 4.74910 0.74770   3
   5   7  -5 5.88463 0.69789   3
  -4  -7   5 4.12103 0.81227   3
   4  -7  -5 4.91728 0.54448   3
   4  -7  -5 4.29215 0.64188   3
   4   7  -5 3.89958 0.53807   3
  -3  -7   5 49.6151 2.13174   3
   3  -7  -5 46.5034 1.92283   3
   3   7  -5 48.9700 2.01548   3
   3   7  -5 48.1851 2.18797   3
  -2  -7   5 1.24833 0.40110   3
   2  -7  -5 1.09891 0.29509   3
  -2  -7   5 1.41049 0.41626   3
   2   7  -5 0.90148 0.29119   3
  -1  -7   5 83.3625 3.26711   3
  -1  -7   5 81.7086 3.14843   3
   1  -7  -5 81.7446 3.06553   3
  -1   7   5 82.2447 2.97445   3
   1   7  -5 84.0278 3.11192   3
  -1   7   5 84.3845 2.92583   3
   0  -7   5 16.9484 1.08140   3
   0  -7   5 18.7042 1.00053   3
   0  -7  -5 19.4953 0.92440   3
   0   7  -5 19.0909 0.93474   3
   0   7   5 17.1863 0.92437   3
   1  -7   5 2.94349 0.44065   3
  -1  -7  -5 2.86583 0.41191   3
   1   7   5 3.12853 0.38518   3
  -1   7  -5 2.91543 0.40150   3
   2  -7   5 0.24663 0.33217   3
  -2  -7  -5 -0.0975 0.25214   3
  -2   7  -5 0.40410 0.26469   3
   2   7   5 -0.1211 0.30144   3
  -3  -7  -5 21.8047 1.11424   3
  -3  -7  -5 19.7593 1.77698   2
   3   7   5 20.9164 1.12004   3
  -3   7  -5 19.9859 1.02773   3
  -3   7  -5 20.5998 0.99235   3
  -4  -7  -5 9.55099 0.78718   3
  -4  -7  -5 8.93106 1.42721   2
  -4   7  -5 11.0206 1.40792   2
  -4   7  -5 9.66426 0.73897   3
  -4   7  -5 9.44793 0.67388   3
  -5  -7  -5 17.4382 1.15480   3
  -5   7  -5 15.6805 0.90649   3
  -5   7  -5 15.9748 1.76416   2
  -6  -7  -5 3.37536 0.76411   3
  -6   7  -5 4.24750 1.43151   2
  -7  -8   5 0.68419 0.63940   3
   7  -8  -5 0.41500 0.62490   3
   7   8  -5 0.60961 1.16289   2
   7   8  -5 1.08077 0.66543   3
  -6  -8   5 37.6708 1.92857   3
   6  -8  -5 37.4202 1.73405   3
   6   8  -5 35.7766 1.84845   3
   5  -8  -5 46.7265 1.92467   3
   5  -8  -5 41.6595 2.09424   3
  -5  -8   5 45.5919 2.12903   3
   5   8  -5 47.3292 2.06380   3
   4  -8  -5 5.85481 0.60311   3
  -4  -8   5 6.96114 0.76856   3
   4  -8  -5 6.16943 0.74286   3
   3  -8  -5 0.17362 0.27432   3
  -3  -8   5 -0.1367 0.34854   3
   3   8  -5 -0.2372 0.30225   3
  -2  -8   5 162.648 5.96557   3
   2  -8  -5 163.759 5.76707   3
  -2  -8   5 165.372 5.99504   3
   2   8  -5 161.377 5.83364   3
  -1  -8   5 0.65437 0.38853   3
  -1  -8   5 0.55530 0.38574   3
   1  -8  -5 0.76806 0.27233   3
   1   8  -5 0.99453 0.29491   3
   0  -8  -5 0.26793 0.26566   3
   0  -8   5 0.85547 0.38137   3
   0  -8   5 0.40288 0.36930   3
   0   8  -5 0.65890 0.27235   3
   0   8   5 0.73088 0.27691   3
   0   8   5 0.60364 0.23062   3
  -1  -8  -5 49.8254 2.00799   3
   1  -8   5 49.8400 2.17500   3
   1  -8   5 50.9528 2.06448   3
   1   8   5 49.3808 2.04613   3
   1   8   5 50.1289 1.93584   3
  -1   8  -5 50.6051 1.95960   3
  -2  -8  -5 73.1766 2.89473   3
  -2  -8  -5 74.7434 3.75804   2
   2  -8   5 77.7097 2.91703   3
   2   8   5 75.0809 2.84597   3
  -2   8  -5 77.0548 2.79624   3
  -3  -8  -5 1.19706 0.61825   3
  -3  -8  -5 0.20958 0.85635   2
   3   8   5 -0.3192 0.41496   3
  -3   8  -5 0.21138 0.25101   3
  -3   8  -5 -0.3695 0.31602   3
  -3   8  -5 -0.1050 0.56520   2
  -4  -8  -5 9.08505 1.57611   2
  -4  -8  -5 12.5820 0.88403   3
  -4   8  -5 10.3962 0.65608   3
  -4   8  -5 11.2641 1.57638   2
  -5  -8  -5 0.79175 0.57974   3
  -5   8  -5 2.38873 1.11002   2
  -6  -8  -5 0.97660 0.60869   3
  -6   8  -5 -0.5396 1.34304   2
  -7  -9   5 5.46674 0.91848   3
   7  -9  -5 5.03127 0.78954   3
   7   9  -5 2.92121 0.76956   3
   6  -9  -5 9.08325 0.88095   3
  -6  -9   5 7.09766 0.93080   3
   6   9  -5 8.12256 1.62243   2
   6   9  -5 7.29164 0.98097   3
  -5  -9   5 94.7136 3.79726   3
   5  -9  -5 92.9328 3.72313   3
   5  -9  -5 96.5787 3.54978   3
   5   9  -5 92.7916 3.68344   3
   4  -9  -5 5.34223 0.60657   3
   4  -9  -5 6.64559 0.77113   3
  -4  -9   5 7.11772 0.83064   3
   4   9  -5 5.51202 0.67424   3
   3  -9  -5 16.2391 0.87644   3
   3   9  -5 16.7975 0.97439   3
  -2  -9   5 0.99105 0.42605   3
   2  -9  -5 1.43144 0.34603   3
   2   9  -5 1.48885 0.35090   3
   1  -9  -5 14.3555 0.81536   3
  -1  -9   5 16.2044 1.04454   3
  -1  -9   5 15.2913 0.98473   3
   1   9  -5 15.7775 0.85925   3
   0  -9   5 0.38414 0.40543   3
   0  -9   5 1.49988 0.47373   3
   0  -9  -5 0.90089 0.28144   3
   0   9  -5 1.64917 0.31693   3
   0   9   5 1.38297 0.27334   3
   1  -9   5 167.484 6.10234   3
   1  -9   5 165.857 5.95490   3
  -1  -9  -5 171.028 5.92883   3
   1   9   5 162.673 5.89021   3
  -1   9  -5 165.365 5.82655   3
   1   9   5 166.171 5.81197   3
  -2  -9  -5 8.32531 1.51914   2
  -2  -9  -5 7.80532 0.67575   3
   2  -9   5 8.25107 0.75814   3
  -2   9  -5 8.76768 1.29166   2
  -2   9  -5 8.48763 0.55570   3
   2   9   5 9.13747 0.70772   3
  -3  -9  -5 8.30609 0.73021   3
  -3  -9  -5 7.29295 1.58527   2
  -3   9  -5 8.62945 0.57633   3
   3   9   5 9.28872 0.81218   3
  -3   9  -5 7.86812 1.29165   2
  -4  -9  -5 -0.5728 0.38767   3
  -4  -9  -5 -1.3468 1.31369   2
  -4   9  -5 -0.7533 0.80644   2
  -5  -9  -5 -0.1515 0.47627   3
  -5   9  -5 1.03398 1.11249   2
  -6  -9  -5 0.03111 0.73781   3
  -6   9  -5 0.94047 1.47149   2
   6 -10  -5 18.8567 1.20827   3
  -6 -10   5 19.0539 1.44463   3
   6  10  -5 18.6866 1.33359   3
   6  10  -5 18.3378 2.19849   2
   5 -10  -5 11.5669 0.85990   3
  -5 -10   5 11.2900 1.10577   3
   5  10  -5 9.78333 2.45352   2
   5  10  -5 10.9295 0.99607   3
  -4 -10   5 167.465 6.06381   3
   4 -10  -5 159.974 5.76201   3
   4  10  -5 158.962 5.88793   3
   3 -10  -5 6.96797 0.61011   3
  -3 -10   5 6.61744 0.83196   3
   3  10  -5 7.15416 0.69828   3
  -2 -10   5 11.5523 0.96865   3
   2 -10  -5 12.5498 0.73478   3
   2  10  -5 11.7641 0.79745   3
   1 -10  -5 18.7729 0.95086   3
  -1 -10   5 18.1440 1.15577   3
   1  10  -5 19.0161 0.96708   3
   0 -10   5 283.127 9.71073   3
   0 -10   5 272.206 9.63601   3
   0 -10  -5 268.494 9.41069   3
   0  10  -5 262.443 9.35611   3
  -1 -10  -5 8.86050 0.67741   3
   1 -10   5 9.28997 0.86735   3
   1 -10   5 8.45290 0.84934   3
  -1  10  -5 7.53087 1.26537   2
   1  10   5 9.89959 0.68346   3
  -1  10  -5 9.45126 0.57350   3
   1  10   5 9.84682 0.61086   3
  -2 -10  -5 74.4319 2.95038   3
   2  10   5 78.8984 2.90500   3
  -3 -10  -5 6.74608 0.73307   3
  -3  10  -5 6.62110 1.38362   2
   3  10   5 8.52778 0.85613   3
  -4 -10  -5 49.9956 2.07127   3
  -4  10  -5 39.8088 2.97069   2
  -5 -10  -5 1.85509 0.57477   3
  -5  10  -5 4.92806 1.58510   2
  -6 -10  -5 -0.5320 0.82132   3
  -6  10  -5 -0.5666 1.66108   2
  -6 -11   5 3.73213 0.84659   3
   6  11  -5 4.19753 0.81806   3
   6  11  -5 4.33775 1.52668   2
  -5 -11   5 48.3117 2.31961   3
   5 -11  -5 46.1053 2.00094   3
   5  11  -5 47.5039 3.24293   2
   5  11  -5 48.8757 2.19296   3
  -4 -11   5 30.3133 1.72166   3
   4 -11  -5 28.5717 1.39630   3
   4  11  -5 33.5398 2.52425   2
   4  11  -5 31.3184 1.54518   3
   3 -11  -5 3.20064 0.44255   3
  -3 -11   5 1.52685 0.57411   3
   3  11  -5 2.70947 0.93292   2
   3  11  -5 2.74316 0.46670   3
  -2 -11   5 0.48994 0.56426   3
   2 -11  -5 0.26478 0.31405   3
   2  11  -5 0.44001 0.34147   3
  -1 -11   5 6.30082 0.83578   3
   1 -11  -5 7.18478 0.60608   3
   1  11  -5 6.77442 1.20505   2
   1  11  -5 6.34653 0.58037   3
   0 -11  -5 33.3887 1.47633   3
   0 -11   5 38.2437 1.74112   3
   0  11  -5 36.5629 1.40495   3
   0  11  -5 27.3753 2.32036   2
   1 -11   5 94.8022 3.68952   3
  -1 -11  -5 94.1238 3.48913   3
  -1  11  -5 93.1884 3.28510   3
  -1  11  -5 89.6639 4.74504   2
   2 -11   5 9.28622 0.95446   3
   2  11   5 7.48884 0.73229   3
  -2  11  -5 7.85608 1.47582   2
  -3 -11  -5 -0.2118 0.40301   3
  -3  11  -5 -0.6040 0.90647   2
  -4 -11  -5 8.16837 0.94045   3
  -4  11  -5 9.47749 1.83430   2
  -5 -11  -5 27.3653 1.59383   3
  -5  11  -5 27.7136 3.01172   2
  -6 -12   5 1.24930 0.85140   3
   6  12  -5 2.14747 0.74989   3
   6  12  -5 -0.0511 1.36804   2
   5 -12  -5 2.92919 0.60560   3
  -5 -12   5 3.39652 0.84805   3
   5  12  -5 3.29221 1.38279   2
   5  12  -5 4.10153 0.73333   3
  -4 -12   5 1.78670 0.63339   3
   4 -12  -5 1.28354 0.44510   3
   4  12  -5 1.01284 1.05233   2
   4  12  -5 1.35474 0.51440   3
   3 -12  -5 20.4915 1.07379   3
  -3 -12   5 21.6380 1.37326   3
   3  12  -5 19.4187 1.15023   3
   3  12  -5 22.2359 2.19381   2
   2 -12  -5 65.0905 2.50492   3
  -2 -12   5 60.8637 2.76818   3
   2  12  -5 65.4174 2.54207   3
   2  12  -5 68.9730 3.93566   2
   1 -12  -5 14.5401 0.86050   3
   1  12  -5 13.3362 1.70373   2
   1  12  -5 14.8380 0.81849   3
   0 -12   5 1.62261 0.55076   3
   0 -12  -5 2.06568 0.41218   3
   0  12  -5 2.19900 0.85628   2
   0  12  -5 2.08282 0.31239   3
   1 -12   5 0.86097 0.56498   3
  -1 -12  -5 0.69742 0.38621   3
  -1  12  -5 1.06268 0.88692   2
   2 -12   5 14.5097 1.15711   3
  -2 -12  -5 13.6164 0.92741   3
   2  12   5 14.2731 0.91098   3
  -2  12  -5 12.0485 1.80982   2
  -3 -12  -5 8.20150 0.90509   3
  -3  12  -5 10.3210 1.83822   2
  -4 -12  -5 8.11611 0.88674   3
  -4  12  -5 8.44264 2.02807   2
  -5 -12  -5 105.509 4.26538   3
  -5  12  -5 110.759 5.87961   2
  -5 -13   5 0.83166 0.79710   3
   5  13  -5 1.46454 0.76819   3
   5  13  -5 -0.0784 1.35158   2
  -4 -13   5 17.8665 1.45681   3
   4 -13  -5 19.4686 1.09213   3
   4  13  -5 19.0665 1.31285   3
   4  13  -5 20.0565 2.38836   2
   3 -13  -5 43.0948 1.84248   3
  -3 -13   5 44.1334 2.20228   3
   3  13  -5 44.3855 1.95225   3
   3  13  -5 46.4998 3.27898   2
  -2 -13   5 -0.2075 0.55162   3
   2 -13  -5 0.52312 0.42377   3
   2  13  -5 0.50011 0.87607   2
   2  13  -5 0.84776 0.40941   3
   1 -13  -5 54.1947 2.16300   3
  -1 -13   5 51.8806 2.42101   3
   1  13  -5 56.3205 3.60545   2
   1  13  -5 53.1299 2.06612   3
   0 -13  -5 26.8510 1.30708   3
   0  13  -5 26.9661 2.46406   2
  -1 -13  -5 0.05855 0.39982   3
   1 -13   5 -0.2307 0.63088   3
  -1  13  -5 0.05253 0.82958   2
  -2 -13  -5 0.64436 0.47291   3
  -2  13  -5 0.69896 1.10825   2
  -3 -13  -5 -0.5635 0.50389   3
   3 -13   5 1.43326 0.76051   3
  -3  13  -5 -0.3736 1.09587   2
  -4 -13  -5 0.40179 0.62362   3
  -4  13  -5 0.34497 1.51775   2
  -5 -14   5 2.39489 0.97576   3
   5  14  -5 2.95867 1.63050   2
   5  14  -5 4.62941 0.94185   3
  -4 -14   5 0.35751 0.77305   3
   4  14  -5 -0.4604 0.68076   3
   4  14  -5 -0.5836 1.30044   2
  -3 -14   5 0.66533 0.73978   3
   3 -14  -5 0.17945 0.45474   3
   3  14  -5 0.83749 1.08996   2
   3  14  -5 1.34087 0.57476   3
  -2 -14   5 0.69045 0.69078   3
   2 -14  -5 0.33381 0.46978   3
   2  14  -5 0.91870 1.09936   2
   2  14  -5 0.32596 0.46743   3
  -1 -14   5 1.53547 0.67906   3
   1 -14  -5 0.23955 0.41309   3
   1  14  -5 0.12209 0.91228   2
   0 -14  -5 2.78117 0.54473   3
   0 -14   5 3.76665 0.76194   3
   0  14  -5 3.10977 1.23597   2
   1 -14   5 4.73980 0.84488   3
  -1 -14  -5 4.63342 0.61978   3
   2 -14   5 9.67729 1.22972   3
  -2 -14  -5 6.84050 0.78556   3
  -2  14  -5 9.66251 2.00420   2
   3 -14   5 8.72133 1.15419   3
  -3 -14  -5 9.44277 1.04929   3
  -3  14  -5 9.78805 2.11601   2
  -4 -14  -5 0.35567 0.71439   3
  -4  14  -5 0.85341 1.68006   2
  -4 -15   5 1.27588 0.80183   3
   4  15  -5 1.07710 1.56372   2
  -3 -15   5 3.68121 0.87736   3
   3  15  -5 4.03285 1.46899   2
   2 -15  -5 0.09392 0.59078   3
  -2 -15   5 0.54317 0.71440   3
   2  15  -5 0.78818 1.26491   2
   1 -15  -5 6.33348 0.80496   3
  -1 -15   5 6.71141 0.98625   3
   1  15  -5 7.74753 1.84736   2
   0 -15  -5 3.21550 0.60855   3
   0 -15   5 3.45311 0.84252   3
   0  15  -5 3.55630 1.45153   2
   1 -15   5 6.82177 1.01336   3
  -1 -15  -5 6.34107 0.77189   3
  -2 -15  -5 5.50183 0.78032   3
   2 -15   5 6.54553 1.04325   3
  -2  15  -5 3.70678 1.54765   2
  -3 -15  -5 9.13034 1.13446   3
   3 -15   5 9.13809 1.20386   3
  -3  15  -5 8.39487 2.05593   2
  -3 -16   5 2.99701 0.97018   3
   3  16  -5 3.08805 1.70385   2
  -2 -16   5 4.34067 0.93891   3
   2  16  -5 4.25204 1.63043   2
  -1 -16   5 10.2137 1.38277   3
   1  16  -5 6.76195 1.79827   2
   0 -16   5 1.82980 0.85751   3
   0 -16  -5 2.63266 0.64361   3
   0  16  -5 0.40832 1.37377   2
  -1 -16  -5 12.8056 1.15671   3
   1 -16   5 13.3012 1.51061   3
  -1  16  -5 14.6557 2.42210   2
   2 -16   5 1.59199 0.96316   3
  -2 -16  -5 1.59770 0.71724   3
  -2  16  -5 0.46528 1.47584   2
   1  17  -5 2.34458 1.54769   2
   0 -17   5 33.4311 2.10303   3
   0  17  -5 35.0228 3.56280   2
   7   0  -6 15.3399 1.25152   3
  -7   0   6 14.5564 1.15760   3
   6   0  -6 8.53527 0.92538   3
   5   0  -6 3.73401 0.57401   3
  -5   0   6 1.80091 0.58431   3
  -5   0   6 2.20726 0.45789   3
   4   0  -6 0.57098 0.34516   3
  -4   0   6 -0.1554 0.41857   3
  -4   0   6 -0.1043 0.33301   3
   3   0  -6 157.749 5.54623   3
  -3   0   6 159.785 5.56674   3
  -3   0   6 140.462 5.44295   3
  -2   0   6 595.116 19.9566   3
   2   0  -6 572.718 19.9007   3
  -2   0   6 577.741 19.8362   3
  -1   0   6 16.1605 1.01144   3
  -1   0   6 16.1440 0.88845   3
   1   0  -6 17.9135 0.94739   3
   0   0   6 57.4605 2.24904   3
   0   0  -6 58.3228 2.31445   3
   0   0   6 57.3744 2.41733   3
   1   0   6 27.0758 1.27102   3
  -1   0  -6 30.0215 1.34991   3
  -2   0  -6 0.39970 0.28319   3
   2   0   6 0.93151 0.33947   3
  -3   0  -6 5.74401 0.62929   3
  -4   0  -6 26.7149 1.38964   3
  -5   0  -6 1.71947 0.52603   3
  -6   0  -6 117.985 4.55613   3
   7  -1  -6 7.87098 0.93027   3
  -7  -1   6 5.57741 0.78552   3
  -7   1   6 4.55133 0.72998   3
   7   1  -6 7.96297 1.02324   3
   6  -1  -6 16.9077 1.14856   3
  -6  -1   6 14.7982 1.05802   3
  -6   1   6 15.6002 1.22439   3
  -6   1   6 14.5906 1.01173   3
   6   1  -6 15.4181 1.13253   3
  -5  -1   6 3.07087 0.51870   3
   5  -1  -6 3.36499 0.52578   3
  -5   1   6 3.21457 0.51016   3
   5   1  -6 4.83470 0.63671   3
  -5   1   6 4.35646 0.61328   3
  -4  -1   6 0.16144 0.36825   3
   4  -1  -6 0.48017 0.34335   3
  -4  -1   6 -0.0840 0.46722   3
  -4   1   6 -0.3244 0.39496   3
   4   1  -6 -0.1201 0.29302   3
  -4   1   6 -0.0249 0.35024   3
  -3  -1   6 285.608 10.0429   3
  -3  -1   6 288.373 9.95694   3
   3  -1  -6 285.649 9.99520   3
   3   1  -6 284.265 10.0121   3
  -3   1   6 289.974 9.99438   3
  -3   1   6 281.623 9.90751   3
   2  -1  -6 387.082 13.3913   3
  -2  -1   6 387.762 13.4594   3
  -2  -1   6 395.884 13.3548   3
   2   1  -6 378.683 13.3905   3
  -2   1   6 393.626 13.4242   3
  -2   1   6 383.450 13.3013   3
   1  -1  -6 8.58145 0.65597   3
  -1  -1   6 8.76159 0.65603   3
  -1  -1   6 7.47156 0.72927   3
  -1   1   6 7.93399 0.74089   3
  -1   1   6 9.45781 0.62844   3
   0  -1   6 41.7066 1.87130   3
   0  -1  -6 40.7093 1.74209   3
   0  -1   6 40.1291 1.69719   3
   0   1   6 39.7592 1.67726   3
   0   1   6 40.6934 1.84556   3
   0   1  -6 42.6242 1.76097   3
   1  -1   6 23.1019 1.12161   3
  -1  -1  -6 23.6661 1.16059   3
  -1   1  -6 23.0584 1.15133   3
   1   1   6 22.0708 1.08903   3
  -2  -1  -6 15.4426 0.94161   3
   2  -1   6 17.0504 1.04632   3
  -2   1  -6 17.4455 0.96359   3
   2   1   6 16.9512 0.92870   3
  -3  -1  -6 226.676 7.90475   3
  -3   1  -6 217.934 7.87547   3
  -4  -1  -6 6.76970 0.75306   3
  -4   1  -6 7.61223 0.72938   3
  -5  -1  -6 12.1126 1.00166   3
  -5   1  -6 12.0889 0.97374   3
  -6  -1  -6 0.35009 0.64544   3
  -6   1  -6 -0.1258 0.60107   3
  -7  -2   6 31.4082 1.67077   3
   7  -2  -6 28.1884 1.65492   3
   7   2  -6 26.8769 1.64202   3
  -7   2   6 27.9745 1.46522   3
   6  -2  -6 6.63497 0.88602   3
  -6  -2   6 6.93320 0.87618   3
   6   2  -6 7.49999 0.89911   3
  -6   2   6 7.03159 0.74509   3
  -5  -2   6 13.9595 1.24525   3
   5  -2  -6 18.1482 1.25827   3
  -5   2   6 17.5985 0.99180   3
   5   2  -6 17.7541 1.10689   3
  -5   2   6 18.2185 1.05787   3
  -4  -2   6 23.4699 1.29390   3
   4  -2  -6 24.6409 1.25029   3
  -4   2   6 24.2129 1.20690   3
   4   2  -6 25.3573 1.29972   3
  -4   2   6 23.9677 1.19538   3
   3  -2  -6 11.8775 0.78991   3
  -3  -2   6 11.8540 0.88142   3
  -3  -2   6 12.9411 0.88063   3
  -3   2   6 10.6746 0.74002   3
   3   2  -6 10.7381 0.78592   3
  -3   2   6 11.9644 0.82048   3
  -2  -2   6 18.9556 1.05962   3
   2  -2  -6 20.6036 1.05577   3
  -2  -2   6 18.9838 1.15132   3
  -2   2   6 20.4238 1.10705   3
   2   2  -6 18.9932 1.04114   3
  -2   2   6 20.5522 0.97934   3
  -1  -2   6 5.42501 0.56315   3
   1  -2  -6 4.53930 0.52004   3
  -1  -2   6 5.72336 0.69219   3
   1   2  -6 4.05891 0.51570   3
  -1   2   6 4.89222 0.50496   3
  -1   2   6 4.46165 0.61670   3
   0  -2   6 54.0093 2.15674   3
   0  -2   6 53.3065 2.30578   3
   0  -2  -6 53.7538 2.18338   3
   0   2  -6 53.3768 2.19098   3
   0   2   6 54.7071 2.10727   3
   0   2   6 54.5936 2.28442   3
  -1  -2  -6 30.0010 1.41544   3
   1  -2   6 30.9458 1.39334   3
  -1   2  -6 32.9346 1.44670   3
   1   2   6 31.2690 1.37178   3
  -2  -2  -6 4.17390 0.52830   3
  -2   2  -6 3.26946 0.47879   3
   2   2   6 3.44194 0.47377   3
  -3  -2  -6 12.7688 1.05421   3
  -3   2  -6 12.0575 0.85956   3
  -4  -2  -6 108.144 4.11849   3
  -5  -2  -6 16.1826 1.15529   3
  -5   2  -6 14.7139 1.07569   3
  -6  -2  -6 2.41603 0.71192   3
  -6   2  -6 2.69938 0.73772   3
   7  -3  -6 -0.5470 0.60400   3
  -7  -3   6 1.08335 0.72849   3
   7   3  -6 0.21454 0.57373   3
  -6  -3   6 8.16686 0.91723   3
   6  -3  -6 5.39037 0.68735   3
  -6   3   6 6.14928 0.70227   3
   6   3  -6 5.69016 0.74131   3
  -5  -3   6 18.8194 1.16360   3
  -5   3   6 17.8014 0.95771   3
  -5   3   6 17.6456 0.99850   3
   5   3  -6 15.8967 1.08201   3
  -4  -3   6 16.1150 1.06677   3
   4  -3  -6 16.4605 0.98564   3
  -4   3   6 16.3403 0.92418   3
  -4   3   6 16.1999 0.89893   3
   3  -3  -6 12.6391 0.80894   3
  -3  -3   6 9.19362 0.87101   3
  -3  -3   6 13.6363 0.94254   3
  -3   3   6 13.8813 0.82189   3
  -3   3   6 11.9346 0.73606   3
   3   3  -6 12.8467 0.83374   3
   2  -3  -6 2.63525 0.41157   3
  -2  -3   6 2.85533 0.51000   3
  -2  -3   6 2.94756 0.47212   3
  -2   3   6 3.26617 0.50263   3
  -2   3   6 3.42570 0.42445   3
   2   3  -6 1.96543 0.38284   3
  -1  -3   6 15.6018 0.98889   3
   1  -3  -6 13.1599 0.83559   3
  -1  -3   6 14.1622 0.88413   3
   1   3  -6 15.0676 0.87158   3
  -1   3   6 15.2385 0.78782   3
  -1   3   6 14.9036 0.93912   3
   0  -3   6 16.7309 1.03764   3
   0  -3  -6 16.5176 0.89575   3
   0  -3   6 13.9213 0.87275   3
   0   3   6 13.9254 0.80058   3
   0   3   6 15.9170 0.98962   3
   0   3  -6 16.0653 0.90458   3
  -1  -3  -6 61.7530 2.40283   3
   1  -3   6 57.6193 2.35350   3
  -1   3  -6 60.4829 2.39338   3
   1   3   6 59.2299 2.30493   3
  -2  -3  -6 3.11210 0.46879   3
   2   3   6 2.96735 0.45073   3
  -2   3  -6 2.72634 0.45608   3
  -3  -3  -6 31.0423 1.76093   3
  -3   3  -6 37.4660 1.60044   3
  -4  -3  -6 23.0185 1.31126   3
  -4   3  -6 24.7702 1.29232   3
  -5  -3  -6 3.88348 0.67708   3
  -5   3  -6 3.69635 0.62262   3
  -6  -3  -6 1.37608 0.66417   3
  -6   3  -6 1.98745 0.75008   3
   7  -4  -6 -0.0143 0.65941   3
  -7  -4   6 0.83093 0.63213   3
   7   4  -6 -0.1013 0.59736   3
   6  -4  -6 12.1424 1.01684   3
  -6  -4   6 12.6176 1.12160   3
   6   4  -6 12.4979 1.07789   3
  -6   4   6 12.3311 0.77448   3
   5  -4  -6 105.470 4.14135   3
  -5  -4   6 107.929 4.13600   3
  -5   4   6 107.638 3.82760   3
   5   4  -6 107.670 4.12222   3
  -5   4   6 104.815 3.81902   3
   4  -4  -6 23.4646 1.18750   3
  -4   4   6 22.4840 1.04932   3
   4   4  -6 21.4235 1.20283   3
  -4   4   6 21.8187 1.03689   3
   3  -4  -6 5.34016 0.56426   3
  -3  -4   6 5.49725 0.72679   3
   3   4  -6 5.30114 0.60264   3
  -3   4   6 4.24893 0.53904   3
  -3   4   6 3.96706 0.50908   3
  -2  -4   6 1.40629 0.42004   3
   2  -4  -6 0.55041 0.27147   3
  -2  -4   6 0.22280 0.36269   3
   2   4  -6 0.86579 0.30232   3
  -2   4   6 0.35966 0.33560   3
  -2   4   6 0.29383 0.27291   3
  -1  -4   6 11.3970 0.87731   3
   1  -4  -6 10.5695 0.73315   3
  -1  -4   6 11.3039 0.82508   3
  -1   4   6 11.2598 0.67062   3
   1   4  -6 11.8911 0.77495   3
  -1   4   6 11.0030 0.80836   3
   0  -4  -6 122.342 4.53766   3
   0  -4   6 120.934 4.53679   3
   0  -4   6 124.652 4.69857   3
   0   4  -6 128.085 4.55811   3
   0   4   6 124.288 4.60424   3
   0   4   6 125.363 4.43670   3
   1  -4   6 10.8101 0.78191   3
  -1  -4  -6 11.7439 0.76902   3
   1   4   6 11.5320 0.70808   3
  -1   4  -6 12.1045 0.79100   3
  -2  -4  -6 4.29464 0.58050   3
  -2   4  -6 4.12394 0.53793   3
   2   4   6 4.63893 0.55902   3
  -3  -4  -6 0.30719 0.34536   3
  -3   4  -6 0.94567 0.39564   3
  -3   4  -6 -0.6156 0.46335   3
  -4  -4  -6 0.53710 0.42816   3
  -4   4  -6 0.88288 0.41692   3
  -5  -4  -6 3.33466 0.69710   3
  -5   4  -6 3.80113 0.61480   3
  -6  -4  -6 25.5517 1.60025   3
  -6   4  -6 25.7442 1.57013   3
   7  -5  -6 3.42970 0.80331   3
  -7  -5   6 0.45841 0.67590   3
   7   5  -6 0.54217 0.55450   3
  -6  -5   6 0.53685 0.63080   3
   6  -5  -6 0.16638 0.49281   3
   6   5  -6 0.78907 0.55740   3
  -5  -5   6 0.73422 0.53851   3
   5  -5  -6 0.50804 0.41762   3
   5   5  -6 0.59192 0.42887   3
  -4  -5   6 0.67364 0.47253   3
   4  -5  -6 1.20125 0.39361   3
  -4   5   6 1.21822 0.29126   3
  -4   5   6 0.99063 0.34477   3
   4   5  -6 0.80031 0.41172   3
   3  -5  -6 19.9246 1.06721   3
  -3  -5   6 20.5758 1.22129   3
   3   5  -6 19.2814 1.09796   3
  -3   5   6 20.2158 0.91633   3
  -3   5   6 20.2804 0.95942   3
   2  -5  -6 59.2570 2.36551   3
  -2  -5   6 59.4822 2.52494   3
  -2   5   6 60.7386 2.30482   3
   2   5  -6 55.0551 2.38080   3
  -2   5   6 61.7314 2.22487   3
   1  -5  -6 48.5637 2.01948   3
  -1  -5   6 51.5796 2.08536   3
  -1  -5   6 49.1361 2.18113   3
  -1   5   6 48.0322 2.01916   3
   1   5  -6 47.3726 2.03079   3
  -1   5   6 51.0250 1.90204   3
   0  -5   6 23.2311 1.24532   3
   0  -5  -6 26.4217 1.22941   3
   0  -5   6 25.6561 1.36650   3
   0   5   6 26.1229 1.29915   3
   0   5   6 25.8196 1.13471   3
   0   5  -6 24.6709 1.21712   3
  -1  -5  -6 7.53420 0.62807   3
   1  -5   6 7.56395 0.77421   3
  -1   5  -6 7.65934 0.63526   3
   1   5   6 6.33562 0.57850   3
  -2  -5  -6 14.1050 0.92928   3
  -2   5  -6 16.4412 0.93095   3
   2   5   6 16.2164 0.93309   3
  -3  -5  -6 45.9934 1.97516   3
  -3   5  -6 43.0424 1.94782   3
  -3   5  -6 45.5542 1.91378   3
  -4  -5  -6 27.6116 1.43437   3
  -4   5  -6 27.2111 1.34533   3
  -4   5  -6 24.6028 1.41029   3
  -5  -5  -6 13.8950 1.12732   3
  -5   5  -6 16.4511 1.82201   2
  -6  -5  -6 31.5053 1.76193   3
  -6   5  -6 31.1493 1.71448   3
   7  -6  -6 -0.3311 0.68224   3
  -7  -6   6 1.48362 0.81947   3
   7   6  -6 -0.2489 0.63875   3
   6  -6  -6 2.42276 0.62850   3
  -6  -6   6 2.45506 0.70989   3
   6   6  -6 3.34813 0.68359   3
   5  -6  -6 7.16076 0.76927   3
  -5  -6   6 8.58171 0.98357   3
   5   6  -6 6.82200 0.84956   3
  -4  -6   6 0.33175 0.46676   3
   4  -6  -6 1.10537 0.39895   3
   4   6  -6 0.96706 0.39999   3
   3  -6  -6 11.2616 0.77965   3
  -3   6   6 11.4294 0.59469   3
  -3   6   6 11.1472 0.61596   3
   3   6  -6 12.3254 0.83097   3
   2  -6  -6 5.66621 0.56838   3
  -2  -6   6 5.90224 0.76348   3
  -2   6   6 5.43171 0.53739   3
   2   6  -6 6.28803 0.61529   3
  -1  -6   6 3.46285 0.59233   3
   1  -6  -6 2.64693 0.44157   3
  -1   6   6 2.76765 0.44315   3
   1   6  -6 2.25402 0.40562   3
  -1   6   6 2.61198 0.35987   3
   0  -6   6 32.1336 1.60757   3
   0  -6  -6 32.0629 1.43678   3
   0   6   6 31.2684 1.32822   3
   0   6   6 31.3595 1.48020   3
   0   6  -6 30.8926 1.43333   3
   1  -6   6 16.1135 1.07205   3
  -1  -6  -6 15.1599 0.90318   3
   1   6   6 14.6326 0.84184   3
  -1   6  -6 15.6633 0.89330   3
   1   6   6 15.6758 1.02689   3
  -2  -6  -6 2.24764 0.46926   3
   2   6   6 2.97308 0.49756   3
  -2   6  -6 3.05573 0.45824   3
  -3  -6  -6 10.7878 0.82932   3
  -3   6  -6 8.58424 0.73032   3
  -3   6  -6 10.4799 0.87273   3
  -4  -6  -6 3.36956 0.61739   3
  -4   6  -6 3.28305 0.53272   3
  -4   6  -6 3.74488 0.62323   3
  -5  -6  -6 13.1396 1.08909   3
  -5   6  -6 11.3773 0.99907   3
  -5   6  -6 11.0538 1.78534   2
  -6  -6  -6 -0.8818 0.65281   3
   7  -7  -6 12.9241 1.35897   3
  -7  -7   6 12.1262 1.42415   3
   7   7  -6 14.8176 1.36754   3
  -6  -7   6 0.51190 0.63594   3
   6  -7  -6 -0.6552 0.54897   3
   6   7  -6 0.23911 0.50650   3
   5  -7  -6 -0.7848 0.39109   3
  -5  -7   6 1.04521 0.61538   3
   5   7  -6 -0.8825 0.50346   3
   4  -7  -6 3.64012 0.54445   3
  -4  -7   6 3.34322 0.58510   3
   4   7  -6 2.94868 0.49836   3
   3  -7  -6 49.6083 2.03316   3
  -3  -7   6 47.2968 2.19550   3
   2  -7  -6 28.0486 1.34228   3
  -2  -7   6 31.5780 1.58612   3
   2   7  -6 28.1704 1.37829   3
  -2   7   6 28.8189 1.17405   3
  -2   7   6 28.4406 1.13147   3
   1  -7  -6 0.26314 0.30148   3
  -1  -7   6 0.07830 0.42356   3
  -1   7   6 0.07431 0.25015   3
  -1   7   6 -0.1244 0.30096   3
   1   7  -6 0.22693 0.28079   3
   0  -7   6 -0.5119 0.38568   3
   0  -7  -6 0.68191 0.32043   3
   0   7   6 -0.1575 0.34318   3
   0   7  -6 0.05407 0.27874   3
   0   7   6 -0.3210 0.27041   3
   1  -7   6 1.34493 0.52516   3
  -1  -7  -6 2.06244 0.41414   3
  -1   7  -6 2.99399 0.45579   3
   1   7   6 3.33671 0.55669   3
   1   7   6 2.46179 0.40769   3
  -2   7  -6 21.4114 1.09458   3
   2   7   6 21.8670 1.13515   3
  -3  -7  -6 4.26079 0.60858   3
  -3   7  -6 2.84304 0.56674   3
  -3   7  -6 3.42654 0.48486   3
  -4  -7  -6 4.89679 0.69738   3
  -4   7  -6 5.62740 2.00777   2
  -4   7  -6 5.34567 0.61179   3
  -5  -7  -6 4.87096 0.75980   3
  -5   7  -6 5.19613 1.40502   2
  -5   7  -6 6.38726 0.80905   3
  -6  -7  -6 42.1564 2.25180   3
   6  -8  -6 84.1296 3.41954   3
  -6  -8   6 87.6754 3.60560   3
   6   8  -6 85.1480 3.53298   3
  -5  -8   6 1.35530 0.64665   3
   5  -8  -6 -0.3488 0.43045   3
   5   8  -6 0.23054 0.46340   3
  -4  -8   6 15.2879 1.19027   3
   4  -8  -6 15.4822 0.99732   3
   4   8  -6 17.2954 1.08902   3
   3  -8  -6 3.81982 0.53054   3
  -3  -8   6 3.43532 0.66399   3
   3   8  -6 4.12838 0.58494   3
  -2  -8   6 -0.0032 0.49582   3
   2  -8  -6 0.91272 0.36752   3
   2   8  -6 0.60525 0.36280   3
  -1  -8   6 12.0151 0.99055   3
   1  -8  -6 12.1857 0.79168   3
   1   8  -6 12.1804 0.79354   3
  -1   8   6 12.1254 0.62538   3
  -1   8   6 11.3699 0.67690   3
   0  -8  -6 2.26140 0.41379   3
   0  -8   6 2.64318 0.56573   3
   0   8  -6 1.42745 0.38287   3
   0   8   6 2.16725 0.40701   3
   0   8   6 1.39831 0.32959   3
   1  -8   6 172.062 6.25881   3
  -1  -8  -6 172.351 6.05854   3
  -1   8  -6 164.951 5.98042   3
   1   8   6 164.757 6.05900   3
   1   8   6 167.193 5.93142   3
  -2  -8  -6 27.2685 1.34719   3
   2   8   6 25.2517 1.29430   3
  -2   8  -6 27.0618 1.24805   3
  -3  -8  -6 32.4393 1.56652   3
  -3   8  -6 29.8942 1.46007   3
  -3   8  -6 30.4116 1.39228   3
  -4  -8  -6 1.53525 0.53273   3
  -4   8  -6 1.74354 0.99233   2
  -4   8  -6 2.45455 0.48016   3
  -5  -8  -6 4.20450 0.75415   3
  -5   8  -6 5.16967 1.54522   2
   6  -9  -6 50.9158 2.32909   3
  -6  -9   6 54.7470 2.55253   3
   6   9  -6 50.3042 2.43100   3
  -5  -9   6 14.5730 1.23937   3
   5  -9  -6 10.7124 0.98100   3
   5   9  -6 10.9528 1.07961   3
  -4  -9   6 4.58239 0.78703   3
   4  -9  -6 3.32733 0.55603   3
   4   9  -6 3.95746 0.67414   3
   3  -9  -6 1.66753 0.41747   3
  -3  -9   6 1.55232 0.50712   3
   3   9  -6 1.21707 0.41317   3
   2  -9  -6 8.65689 0.72348   3
  -2  -9   6 7.62157 0.92416   3
   2   9  -6 8.41276 0.71469   3
   1  -9  -6 2.97780 0.47906   3
  -1  -9   6 4.59212 1.07313   3
   1   9  -6 3.50015 0.48162   3
   0  -9  -6 0.78590 0.38039   3
   0  -9   6 1.68047 0.57774   3
   0   9   6 2.13822 0.45390   3
   0   9   6 1.48300 0.37457   3
   0   9  -6 1.02206 0.35042   3
  -1  -9  -6 11.8195 0.86574   3
   1  -9   6 11.0962 1.40414   3
   1   9   6 11.5372 0.79734   3
   1   9   6 13.8559 0.91006   3
  -1   9  -6 12.9798 0.79594   3
  -2  -9  -6 144.254 5.28023   3
  -2   9  -6 145.031 5.17084   3
   2   9   6 142.869 5.18303   3
  -2   9  -6 143.353 5.12704   3
  -3  -9  -6 1.26629 0.53657   3
  -3   9  -6 1.79412 0.40132   3
  -3   9  -6 2.21469 1.02572   2
  -4  -9  -6 17.3020 1.24322   3
  -4   9  -6 17.0793 2.15714   2
  -5  -9  -6 2.74523 0.74959   3
  -5   9  -6 1.57541 1.46739   2
   6 -10  -6 32.2566 1.70145   3
  -6 -10   6 29.0064 1.95507   3
   6  10  -6 29.2513 1.77031   3
   6  10  -6 31.2521 2.90050   2
   5 -10  -6 6.68960 0.89504   3
  -5 -10   6 8.95514 1.06287   3
   5  10  -6 8.47027 1.00918   3
  -4 -10   6 126.783 4.87866   3
   4 -10  -6 121.130 4.58567   3
   4  10  -6 125.056 4.70121   3
   3 -10  -6 1.64254 0.46046   3
  -3 -10   6 1.11196 0.59896   3
   3  10  -6 1.35365 0.47981   3
   2 -10  -6 1.63651 0.44495   3
  -2 -10   6 1.66606 0.59757   3
   2  10  -6 2.31952 0.47853   3
   1 -10  -6 99.8840 3.70938   3
  -1 -10   6 97.5706 3.93706   3
   1  10  -6 98.6995 3.68479   3
   0 -10   6 21.2705 1.34139   3
   0 -10  -6 19.5884 1.09296   3
   0  10  -6 18.8543 1.02959   3
   1 -10   6 49.3015 2.29761   3
   1  10   6 48.7424 2.03905   3
  -1  10  -6 50.5329 1.97820   3
   1  10   6 48.4702 1.94602   3
  -2 -10  -6 63.1062 2.53991   3
   2 -10   6 60.5355 2.72787   3
   2  10   6 61.2781 2.56032   3
  -2  10  -6 59.4872 3.64204   2
   2  10   6 60.4063 2.66742   3
  -2  10  -6 60.3799 2.31544   3
  -3 -10  -6 0.96037 0.52907   3
  -3  10  -6 -0.0526 0.84374   2
  -4 -10  -6 -1.1312 0.59572   3
  -4  10  -6 0.57393 1.16598   2
  -5 -10  -6 55.5736 2.64275   3
  -5  10  -6 55.2129 4.05072   2
   5 -11  -6 34.5138 1.70641   3
  -5 -11   6 31.8106 1.96870   3
   5  11  -6 34.2034 1.84903   3
   5  11  -6 35.6465 3.02276   2
   4 -11  -6 11.9522 0.99378   3
  -4 -11   6 12.8525 1.24008   3
   4  11  -6 14.8435 1.11422   3
  -3 -11   6 10.2216 1.16256   3
   3 -11  -6 8.16475 0.82498   3
   3  11  -6 9.38785 0.88646   3
  -2 -11   6 2.39039 0.66062   3
   2 -11  -6 0.55680 0.45993   3
   2  11  -6 1.70728 0.46287   3
   1 -11  -6 -0.0016 0.40976   3
  -1 -11   6 0.59393 0.56656   3
   1  11  -6 0.28535 0.37302   3
   0 -11   6 168.795 6.24018   3
   0 -11  -6 166.802 5.97107   3
   0  11  -6 161.801 5.86593   3
  -1 -11  -6 13.9915 0.99025   3
   1 -11   6 14.3962 1.22099   3
  -1  11  -6 12.7941 1.76573   2
  -1  11  -6 15.1158 0.83094   3
   2 -11   6 10.8193 1.20292   3
  -2 -11  -6 12.6305 0.98388   3
  -2  11  -6 9.95200 1.75367   2
   2  11   6 12.8670 1.07071   3
  -3 -11  -6 9.19591 1.05541   3
  -3  11  -6 12.6001 2.02647   2
  -4 -11  -6 42.8558 2.19092   3
  -4  11  -6 49.5705 3.57892   2
  -5 -12   6 5.19863 0.98591   3
   5  12  -6 2.26492 1.58664   2
   5  12  -6 5.29399 0.86220   3
  -4 -12   6 45.2628 2.39283   3
   4 -12  -6 46.5817 2.05502   3
   4  12  -6 50.7303 2.24776   3
   4  12  -6 46.2351 3.44678   2
  -3 -12   6 18.3213 1.45981   3
   3 -12  -6 16.8962 1.11526   3
   3  12  -6 20.7053 2.30886   2
   3  12  -6 18.7008 1.19788   3
   2 -12  -6 8.18057 0.84706   3
  -2 -12   6 7.56856 1.00819   3
   2  12  -6 7.39297 1.61802   2
   2  12  -6 9.63683 0.85494   3
   1 -12  -6 54.6631 2.26141   3
  -1 -12   6 54.2825 2.54347   3
   1  12  -6 52.7081 2.18369   3
   1  12  -6 55.1782 3.60823   2
   0 -12  -6 8.36288 1.01628   3
   0 -12   6 8.72509 1.11261   3
   0  12  -6 4.47386 1.20142   2
   0  12  -6 6.43550 0.66765   3
  -1 -12  -6 12.1870 1.00850   3
   1 -12   6 13.4342 1.26293   3
   2 -12   6 0.22864 0.72930   3
  -2 -12  -6 0.70491 0.57045   3
  -2  12  -6 0.19446 1.15352   2
   2  12   6 0.23374 0.60127   3
  -3 -12  -6 0.66057 0.61657   3
   3 -12   6 1.74226 0.89164   3
  -3  12  -6 0.82720 1.31093   2
  -4 -12  -6 0.40444 0.73478   3
  -4  12  -6 2.01176 1.56421   2
  -4 -13   6 9.85677 1.35064   3
   4  13  -6 9.81796 2.23492   2
   4  13  -6 12.1095 1.27129   3
  -3 -13   6 0.46324 0.71278   3
   3 -13  -6 0.63805 0.53048   3
   3  13  -6 0.65035 0.62237   3
   3  13  -6 1.22891 1.30151   2
   2 -13  -6 -0.0655 0.49805   3
  -2 -13   6 -0.2061 0.70059   3
   2  13  -6 0.08030 1.14497   2
   2  13  -6 -0.7784 0.51198   3
  -1 -13   6 57.2371 2.68109   3
   1 -13  -6 56.9980 2.35825   3
   1  13  -6 54.8884 3.75906   2
   1  13  -6 56.6828 2.26293   3
   0 -13   6 1.72352 0.75931   3
   0 -13  -6 -0.0025 0.49797   3
   0  13  -6 0.47428 0.83913   2
  -1 -13  -6 0.55495 0.55735   3
   1 -13   6 1.32663 0.77014   3
  -1  13  -6 0.39251 0.89306   2
  -2 -13  -6 34.4557 1.82611   3
   2 -13   6 34.8949 2.10539   3
  -2  13  -6 37.7739 3.13368   2
   3 -13   6 0.12279 0.93711   3
  -3 -13  -6 0.49740 0.70709   3
  -3  13  -6 1.53201 1.49667   2
   4  14  -6 25.1204 2.97018   2
  -3 -14   6 25.4960 1.73790   3
   3  14  -6 22.7535 2.76289   2
   3  14  -6 24.2166 1.51795   3
  -2 -14   6 11.7018 1.35536   3
   2 -14  -6 10.7183 1.03109   3
   2  14  -6 12.1385 2.13556   2
   2  14  -6 10.5269 1.05215   3
  -1 -14   6 9.36558 1.13817   3
   1  14  -6 5.97240 1.54578   2
   0 -14  -6 1.86006 0.64988   3
   0 -14   6 1.40966 0.89460   3
   0  14  -6 1.37917 1.39965   2
   1 -14   6 2.60474 0.96030   3
  -1 -14  -6 0.32196 0.64683   3
  -1  14  -6 0.89374 1.32604   2
  -2 -14  -6 60.1011 2.68521   3
   2 -14   6 64.0860 3.03038   3
  -2  14  -6 60.1051 4.23683   2
  -2 -15   6 7.49710 1.10854   3
   2  15  -6 5.63145 1.59557   2
   1 -15  -6 19.3095 1.26118   3
  -1 -15   6 14.9982 1.60765   3
   1  15  -6 13.0271 2.31005   2
   0 -15  -6 5.58008 0.81468   3
   0 -15   6 3.02579 1.01357   3
   0  15  -6 3.49133 1.35622   2
  -1 -15  -6 20.8869 1.46981   3
   1 -15   6 16.2828 1.73041   3
  -1  15  -6 15.6982 2.51936   2
  -7   0   7 -0.4565 0.78841   3
  -6   0   7 0.70842 0.60728   3
   6   0  -7 -0.0761 0.60969   3
   5   0  -7 -0.2819 0.47883   3
  -5   0   7 0.16485 0.48139   3
  -4   0   7 0.25934 0.43890   3
   4   0  -7 -0.4418 0.34102   3
   3   0  -7 -0.0056 0.33137   3
  -3   0   7 0.45555 0.49333   3
  -2   0   7 0.08570 0.41339   3
  -2   0   7 0.27027 0.42798   3
   2   0  -7 -0.6794 0.29756   3
  -1   0   7 -0.1397 0.41072   3
  -1   0   7 0.06284 0.41757   3
   1   0  -7 -0.4258 0.29380   3
   0   0  -7 0.13573 0.28880   3
   0   0   7 0.45342 0.40802   3
   1   0   7 -0.2973 0.45835   3
  -1   0  -7 0.08420 0.33520   3
  -2   0  -7 0.02750 0.34314   3
  -3   0  -7 0.34472 0.45712   3
  -4   0  -7 0.70734 0.51247   3
  -5   0  -7 -0.1413 0.55083   3
  -6   0  -7 -0.1729 0.73692   3
   7  -1  -7 14.3264 1.32839   3
  -7  -1   7 15.7851 1.40966   3
  -7   1   7 11.8636 1.27903   3
   7   1  -7 12.9516 1.31327   3
  -6  -1   7 3.03498 0.69316   3
   6  -1  -7 2.00014 0.72056   3
   6   1  -7 2.58016 0.65367   3
  -6   1   7 2.76018 0.64423   3
  -5  -1   7 19.1222 1.25310   3
   5  -1  -7 19.2915 1.27338   3
   5   1  -7 19.6608 1.27354   3
   4  -1  -7 -0.4667 0.36629   3
  -4  -1   7 0.16191 0.43839   3
  -4   1   7 -0.6961 0.43531   3
  -4   1   7 -0.1539 0.57663   3
   4   1  -7 -0.0193 0.38624   3
  -3  -1   7 2.79846 0.58193   3
   3   1  -7 2.56169 0.48706   3
  -3   1   7 2.19870 0.53482   3
  -3   1   7 3.26052 0.55738   3
  -2  -1   7 8.45337 0.88754   3
   2  -1  -7 9.49072 0.73865   3
   2   1  -7 6.68035 0.71463   3
  -2   1   7 6.71624 0.72564   3
  -2   1   7 7.87832 0.84158   3
  -1  -1   7 0.48949 0.42655   3
   1  -1  -7 0.33417 0.33751   3
   1   1  -7 0.56032 0.31775   3
  -1   1   7 1.01359 0.37570   3
  -1   1   7 0.61042 0.42000   3
   0  -1  -7 27.0609 1.34689   3
   0  -1   7 26.8174 1.47891   3
   0   1  -7 28.5066 1.36555   3
   0   1   7 24.9518 1.43989   3
   1  -1   7 42.4287 2.33030   3
   1   1   7 44.5651 2.09795   3
  -1   1  -7 46.1349 2.06321   3
  -2  -1  -7 83.6121 3.27105   3
  -2   1  -7 82.3335 3.25932   3
  -3  -1  -7 49.7029 2.20984   3
  -3   1  -7 51.4711 2.21784   3
  -4  -1  -7 7.28719 0.90241   3
  -4   1  -7 6.63260 0.89385   3
  -5  -1  -7 -0.0792 0.58593   3
  -5   1  -7 0.38877 0.63991   3
  -6  -1  -7 2.34797 0.79155   3
  -6   1  -7 1.46108 0.84917   3
   7  -2  -7 0.68504 0.71798   3
  -7  -2   7 -0.5382 0.75449   3
   7   2  -7 0.32804 0.74484   3
   6  -2  -7 29.5487 1.68396   3
  -6  -2   7 29.4029 1.68052   3
  -6   2   7 28.5304 1.53633   3
   6   2  -7 29.2040 1.65427   3
  -5  -2   7 4.77161 0.70888   3
   5  -2  -7 3.94719 0.65370   3
  -5   2   7 3.06383 0.56513   3
   5   2  -7 4.14209 0.70432   3
  -5   2   7 3.14567 0.70014   3
   4  -2  -7 0.60440 0.39285   3
  -4  -2   7 1.30865 0.50395   3
   4   2  -7 1.48208 0.47650   3
  -4   2   7 1.14908 0.46008   3
  -4   2   7 1.57783 0.48990   3
   3   2  -7 5.02673 0.63637   3
  -3   2   7 5.68425 0.63003   3
  -3   2   7 5.29253 0.72423   3
  -2  -2   7 2.86048 0.56264   3
   2  -2  -7 2.54027 0.51428   3
  -2   2   7 3.15853 0.54936   3
   2   2  -7 4.10168 0.80603   3
  -2   2   7 3.09150 0.48065   3
   1  -2  -7 0.19821 0.31130   3
  -1  -2   7 -0.1354 0.38472   3
  -1   2   7 0.37861 0.35802   3
  -1   2   7 0.74367 0.44304   3
   1   2  -7 0.49152 0.31670   3
   0  -2  -7 39.6937 1.74682   3
   0  -2   7 38.1479 1.86886   3
   0   2  -7 37.7226 1.73640   3
   0   2   7 38.8476 1.84281   3
   0   2   7 37.1302 1.64956   3
  -2  -2  -7 2.47310 0.46991   3
  -2   2  -7 1.97980 0.45283   3
  -3  -2  -7 178.833 6.57676   3
  -3   2  -7 182.159 6.56067   3
  -4  -2  -7 13.0156 1.13863   3
  -4   2  -7 13.7236 1.06080   3
  -5  -2  -7 13.5594 1.22032   3
  -5   2  -7 11.7235 1.16813   3
  -6  -2  -7 18.5878 1.60014   3
  -6   2  -7 19.8895 1.62735   3
  -7  -3   7 -1.7185 0.76003   3
   7  -3  -7 1.51685 0.83624   3
   7   3  -7 0.49826 0.79286   3
   6  -3  -7 13.1121 1.21386   3
  -6  -3   7 13.7647 1.28834   3
   6   3  -7 13.3247 1.21070   3
  -6   3   7 14.1301 1.04351   3
   5  -3  -7 2.15662 0.60583   3
  -5  -3   7 4.59828 0.76564   3
   5   3  -7 3.53113 0.65001   3
  -5   3   7 4.48798 0.58584   3
   4  -3  -7 6.82030 0.75396   3
  -4  -3   7 6.14076 0.80316   3
  -4   3   7 7.05670 0.76314   3
   4   3  -7 7.06326 0.79652   3
  -4   3   7 7.50643 0.77294   3
  -3  -3   7 5.59845 0.71921   3
   3  -3  -7 5.91838 0.90443   3
  -3   3   7 4.00469 0.57327   3
  -3   3   7 3.71240 0.53422   3
   3   3  -7 4.20621 0.54803   3
   2  -3  -7 5.32031 0.65543   3
  -2   3   7 6.67616 0.73903   3
  -2   3   7 6.63980 0.66073   3
   1  -3  -7 1.78611 0.41508   3
  -1  -3   7 2.26982 0.59808   3
  -1   3   7 2.57440 0.44789   3
   1   3  -7 1.53332 0.42208   3
  -1   3   7 1.71049 0.49563   3
   0  -3  -7 23.0438 1.21593   3
   0  -3   7 21.6936 1.48107   3
   0   3   7 20.9662 1.13992   3
   0   3   7 24.7921 1.34394   3
   0   3  -7 24.1309 1.23211   3
   1  -3   7 7.76041 0.89085   3
  -1  -3  -7 8.56391 0.75493   3
  -1   3  -7 8.18197 0.74657   3
   1   3   7 9.55064 0.91691   3
  -2  -3  -7 12.6182 0.93284   3
  -2   3  -7 13.6733 1.04697   3
  -3  -3  -7 26.4103 1.45278   3
  -3   3  -7 25.9185 1.38956   3
  -4  -3  -7 2.20218 0.62188   3
  -4   3  -7 1.86388 0.56290   3
  -5  -3  -7 20.8058 1.47037   3
  -5   3  -7 20.8476 1.45959   3
   7  -4  -7 3.45274 0.90859   3
  -7  -4   7 1.13921 0.78225   3
   7   4  -7 0.35478 0.82881   3
  -6  -4   7 3.19641 0.75055   3
   6  -4  -7 4.06863 0.75039   3
   6   4  -7 4.45854 0.79725   3
   5  -4  -7 10.0695 0.96393   3
  -5  -4   7 11.0987 1.17470   3
  -5   4   7 9.50252 0.82372   3
   5   4  -7 11.6168 1.02029   3
  -4  -4   7 8.45214 0.95697   3
   4  -4  -7 8.25464 0.78548   3
   4   4  -7 6.67520 0.80938   3
  -4   4   7 5.93108 0.73461   3
  -4   4   7 7.66733 0.72598   3
   3  -4  -7 -0.1991 0.42725   3
  -3  -4   7 -0.4972 0.46029   3
  -3   4   7 0.38736 0.39295   3
  -3   4   7 0.23865 0.38465   3
   3   4  -7 -0.0557 0.36864   3
  -2  -4   7 2.59331 0.58987   3
   2  -4  -7 1.35883 0.41465   3
   2   4  -7 2.03603 0.44686   3
  -2   4   7 2.93521 0.52016   3
  -2   4   7 2.80502 0.44542   3
  -1  -4   7 34.8512 2.31963   3
   1  -4  -7 36.5906 1.65927   3
   1   4  -7 35.9665 1.69072   3
  -1   4   7 36.5915 1.71595   3
  -1   4   7 36.5687 1.55610   3
   0  -4   7 0.96715 0.55225   3
   0  -4  -7 -0.4580 0.33740   3
   0   4   7 0.55601 0.36109   3
   0   4  -7 -0.3270 0.29527   3
   0   4   7 0.22047 0.43018   3
  -1  -4  -7 57.1173 2.40518   3
   1  -4   7 57.7663 2.58739   3
  -1   4  -7 58.9769 2.41800   3
   1   4   7 58.6473 2.54828   3
  -2  -4  -7 2.37522 0.49822   3
  -3  -4  -7 9.08806 0.91949   3
  -3   4  -7 11.3791 0.88871   3
  -4  -4  -7 13.2993 1.11651   3
  -4   4  -7 13.7162 1.07405   3
  -5  -4  -7 4.93615 0.81218   3
  -5   4  -7 4.45316 0.83829   3
  -6  -5   7 6.43070 0.88442   3
   6  -5  -7 5.53878 0.88636   3
   6   5  -7 6.88732 0.86761   3
  -5  -5   7 0.63121 0.63433   3
   5  -5  -7 0.56493 0.52137   3
   5   5  -7 1.42952 0.57648   3
  -4  -5   7 9.51825 1.01313   3
   4  -5  -7 8.70667 0.82883   3
   4   5  -7 7.40382 0.87856   3
  -4   5   7 7.44128 0.69447   3
  -3  -5   7 0.52801 0.51935   3
   3  -5  -7 -0.4328 0.38384   3
  -3   5   7 0.10993 0.38888   3
  -3   5   7 -0.4142 0.36160   3
   3   5  -7 -0.0625 0.40138   3
  -2  -5   7 3.69944 0.67284   3
   2  -5  -7 1.68894 0.44944   3
   2   5  -7 2.40831 0.48613   3
  -2   5   7 2.60155 0.43300   3
  -2   5   7 2.06669 0.48903   3
  -1  -5   7 0.68727 0.48106   3
   1  -5  -7 0.16855 0.32631   3
  -1   5   7 -0.0958 0.40900   3
  -1   5   7 -0.0707 0.31841   3
   0  -5  -7 8.54494 0.85238   3
   0  -5   7 9.10473 0.91087   3
   0   5  -7 8.55602 0.73858   3
   0   5   7 8.45798 0.86859   3
   0   5   7 8.89612 0.70812   3
  -1  -5  -7 0.40483 0.36063   3
   1  -5   7 1.67565 0.51220   3
   1   5   7 0.20622 0.47643   3
   1   5   7 0.72271 0.48801   3
  -1   5  -7 1.05602 0.41499   3
  -2  -5  -7 -0.1763 0.39677   3
  -3  -5  -7 32.7464 1.68604   3
  -3   5  -7 32.2819 1.58398   3
  -4  -5  -7 2.09136 0.62656   3
  -4   5  -7 2.45853 0.63894   3
  -5  -5  -7 16.9038 1.34673   3
  -5   5  -7 16.5533 1.40471   3
  -5   5  -7 19.1763 2.33548   2
   6  -6  -7 -0.4633 0.67280   3
  -6  -6   7 -0.3668 0.75125   3
   6   6  -7 -1.0427 0.57747   3
  -5  -6   7 7.77119 0.98007   3
   5  -6  -7 7.86046 0.95336   3
   5   6  -7 7.93769 0.95994   3
  -4  -6   7 4.24392 0.75924   3
   4  -6  -7 5.30282 0.68549   3
   4   6  -7 5.23424 0.71845   3
   3  -6  -7 29.6768 1.66360   3
  -3  -6   7 30.4655 1.68036   3
  -3   6   7 28.3025 1.28290   3
  -3   6   7 28.5344 1.23428   3
   3   6  -7 28.7821 1.49593   3
   2  -6  -7 4.68546 0.62621   3
  -2  -6   7 4.94316 0.75067   3
  -2   6   7 4.70081 0.55995   3
  -2   6   7 5.86217 0.67947   3
   2   6  -7 6.27197 0.73596   3
  -1  -6   7 4.09238 0.65946   3
   1  -6  -7 3.71245 0.54290   3
  -1   6   7 3.95149 0.47954   3
  -1   6   7 5.75281 0.72603   3
   0  -6   7 0.40063 0.46606   3
   0   6   7 1.73601 0.51196   3
   0   6  -7 1.41135 0.42274   3
   0   6   7 0.49798 0.39329   3
   1  -6   7 16.5201 1.19796   3
  -1  -6  -7 14.7951 0.99796   3
   1   6   7 12.2444 0.92938   3
  -1   6  -7 14.1365 0.91636   3
   1   6   7 14.3707 1.12237   3
  -2  -6  -7 32.8305 1.61600   3
  -2   6  -7 31.5179 1.66526   3
  -3  -6  -7 5.35588 0.74933   3
  -3   6  -7 3.65248 0.70258   3
  -4  -6  -7 25.5581 1.56415   3
  -4   6  -7 27.6758 1.46295   3
  -5  -6  -7 10.4882 1.26504   3
  -5   6  -7 12.8593 2.34133   2
  -6  -7   7 10.3432 1.39014   3
   6  -7  -7 11.3003 1.27204   3
   6   7  -7 12.3559 1.23355   3
   5  -7  -7 -0.6008 0.53952   3
  -5  -7   7 0.66692 0.69007   3
   5   7  -7 1.00373 0.56556   3
  -4  -7   7 21.9452 1.47630   3
   4  -7  -7 20.4475 1.27894   3
   4   7  -7 21.5052 1.34221   3
  -3  -7   7 3.48637 0.70617   3
   3   7  -7 2.86496 0.58137   3
   2  -7  -7 51.1341 2.19541   3
  -2  -7   7 50.7595 2.39782   3
   2   7  -7 53.4427 2.23965   3
  -2   7   7 51.0356 1.96105   3
  -2   7   7 51.7683 2.02800   3
  -1  -7   7 22.8170 1.44036   3
   1  -7  -7 23.2581 1.29897   3
  -1   7   7 23.5882 1.19902   3
   1   7  -7 20.8174 1.36404   3
  -1   7   7 21.1230 1.06803   3
   0  -7  -7 0.22896 0.39033   3
   0  -7   7 1.76827 0.56002   3
   0   7   7 0.55328 0.38265   3
   0   7   7 0.43998 0.44653   3
   0   7  -7 0.11955 0.33659   3
  -1  -7  -7 6.88074 0.78293   3
   1  -7   7 7.94780 0.99672   3
  -1   7  -7 7.94028 0.74682   3
   1   7   7 7.44928 0.77108   3
   1   7   7 6.98190 0.82941   3
  -2  -7  -7 1.58858 0.52268   3
  -2   7  -7 1.01418 0.42578   3
  -3  -7  -7 0.41637 0.54908   3
  -3   7  -7 1.26049 0.53964   3
  -4  -7  -7 12.5181 1.17943   3
  -4   7  -7 11.3121 1.20113   3
  -5  -7  -7 1.92974 0.83417   3
  -5   7  -7 2.33860 1.66448   2
  -6  -8   7 9.72111 1.20399   3
   6  -8  -7 10.1318 1.27906   3
   6   8  -7 9.63482 1.31358   3
   5  -8  -7 13.6044 1.16559   3
  -5  -8   7 11.0972 1.36106   3
   5   8  -7 14.9498 1.21237   3
  -4  -8   7 0.34041 0.60468   3
   4  -8  -7 1.51543 0.59024   3
   4   8  -7 1.11015 0.58725   3
  -3  -8   7 60.4438 2.74719   3
   3   8  -7 58.7339 2.53784   3
   2  -8  -7 3.20808 0.68507   3
  -2  -8   7 2.56594 0.70942   3
   2   8  -7 3.24659 0.52980   3
  -1  -8   7 0.21591 0.52384   3
   1   8  -7 -0.0008 0.37679   3
  -1   8   7 0.51515 0.37652   3
  -1   8   7 -0.0617 0.39218   3
   0  -8  -7 20.5845 1.20104   3
   0  -8   7 23.3373 1.46371   3
   0   8  -7 20.2380 1.17172   3
   0   8   7 20.9785 1.08923   3
   0   8   7 21.4291 1.22774   3
  -1  -8  -7 44.5552 1.98621   3
   1  -8   7 43.5005 2.20254   3
   1   8   7 41.9369 1.98324   3
  -1   8  -7 44.0864 1.89416   3
   1   8   7 42.7929 1.84886   3
  -2  -8  -7 2.25181 0.57125   3
   2  -8   7 1.24913 0.66640   3
   2   8   7 1.53545 0.76745   3
  -2   8  -7 2.25743 0.50932   3
  -3  -8  -7 33.9567 1.75712   3
  -3   8  -7 31.4938 1.57969   3
  -4  -8  -7 1.27301 0.65817   3
  -4   8  -7 1.62938 1.37973   2
  -4   8  -7 0.21836 0.59476   3
   5  -9  -7 -0.2243 0.66237   3
  -5  -9   7 0.10558 0.76016   3
   5   9  -7 -0.2647 0.62855   3
   4  -9  -7 22.2333 1.40477   3
  -4  -9   7 23.2626 1.54174   3
   4   9  -7 21.8394 1.40481   3
  -3  -9   7 0.75245 0.69694   3
   3  -9  -7 0.71436 0.53618   3
   3   9  -7 -0.3603 0.43339   3
  -2  -9   7 1.74219 0.68646   3
   2   9  -7 0.52379 0.41602   3
   1  -9  -7 9.47868 0.86874   3
  -1  -9   7 11.5817 1.20027   3
   1   9  -7 10.9878 0.84868   3
   0  -9  -7 75.0427 3.09431   3
   0  -9   7 81.2446 3.36726   3
   0   9   7 76.7286 2.97646   3
   0   9  -7 77.2948 3.03237   3
   1  -9   7 37.1074 1.98608   3
  -1  -9  -7 35.5807 1.73768   3
   1   9   7 35.6462 1.76476   3
  -1   9  -7 33.2816 1.62225   3
  -2  -9  -7 -0.2809 0.52742   3
   2  -9   7 -0.0111 0.69044   3
  -2   9  -7 -0.7088 0.42754   3
  -3  -9  -7 4.48594 0.70858   3
  -3   9  -7 2.89542 1.18114   2
  -3   9  -7 2.10362 0.55841   3
  -4  -9  -7 1.00121 0.67394   3
  -4   9  -7 -0.2751 1.29753   2
   5 -10  -7 100.435 3.82909   3
  -5 -10   7 94.5146 4.10228   3
   5  10  -7 92.6671 3.89779   3
  -4 -10   7 0.73294 0.70267   3
   4 -10  -7 -0.3198 0.64025   3
   4  10  -7 -0.8132 0.58631   3
  -3 -10   7 2.80339 0.77215   3
   3 -10  -7 2.21109 0.60995   3
   3  10  -7 2.84098 0.64974   3
   2 -10  -7 26.0189 1.44336   3
  -2 -10   7 29.6184 1.79407   3
   2  10  -7 25.0540 1.40872   3
  -1 -10   7 106.982 4.33662   3
   1 -10  -7 106.197 4.05348   3
   1  10  -7 104.646 4.00221   3
   0 -10  -7 44.4771 2.05693   3
   0 -10   7 45.8224 2.34600   3
   0  10  -7 45.2411 1.95699   3
   1 -10   7 60.1590 2.81692   3
  -1 -10  -7 59.3207 2.55259   3
   1  10   7 57.7947 2.46505   3
  -1  10  -7 59.2778 2.39084   3
   2 -10   7 -0.7550 0.73237   3
  -2 -10  -7 1.43222 0.60683   3
  -2  10  -7 0.84876 0.48569   3
   2  10   7 0.28478 0.76192   3
  -3 -10  -7 16.8502 1.33478   3
  -3  10  -7 18.0409 2.38683   2
  -4 -10  -7 12.4316 1.36741   3
  -4  10  -7 13.7037 2.51613   2
  -4 -11   7 9.67573 1.33160   3
   4 -11  -7 10.7810 1.16041   3
   4  11  -7 9.62707 1.15775   3
   3 -11  -7 0.75567 0.59268   3
  -3 -11   7 -0.9538 0.79424   3
   3  11  -7 0.07498 0.61649   3
   2 -11  -7 -0.1883 0.52548   3
  -2 -11   7 1.72216 0.79957   3
   2  11  -7 0.75365 0.54849   3
  -1 -11   7 51.9383 2.57765   3
   1 -11  -7 51.3980 2.29227   3
   1  11  -7 52.5094 2.23601   3
   0 -11  -7 62.0321 2.65452   3
   0 -11   7 62.8761 2.94161   3
   0  11  -7 61.7246 2.50717   3
   1 -11   7 12.1218 1.32152   3
  -1 -11  -7 9.15918 1.06751   3
  -1  11  -7 7.96235 0.82686   3
  -2 -11  -7 0.08221 0.60357   3
   2 -11   7 1.06357 0.82702   3
  -2  11  -7 -0.9185 1.13151   2
   2  11   7 0.00768 0.78304   3
   3 -11   7 14.3436 1.66268   3
  -3 -11  -7 10.9751 1.25853   3
  -3  11  -7 15.3251 2.44909   2
   3  11   7 12.4719 1.39125   3
  -4 -12   7 28.3255 2.02026   3
   4 -12  -7 26.3547 1.60888   3
   4  12  -7 24.9664 1.69689   3
  -3 -12   7 28.5816 1.93118   3
   3 -12  -7 29.2932 1.62405   3
   3  12  -7 29.8759 1.74458   3
   2 -12  -7 0.82104 0.64923   3
  -2 -12   7 -0.5685 0.75468   3
   2  12  -7 -0.2674 0.59493   3
  -1 -12   7 4.19619 0.89100   3
   1 -12  -7 3.13172 0.68671   3
   0 -12  -7 6.33832 0.84918   3
   0 -12   7 7.40237 1.11151   3
   0  12  -7 5.12083 0.68155   3
   0  12  -7 3.60067 1.26461   2
  -1 -12  -7 8.92411 1.14145   3
   1 -12   7 11.1380 1.43550   3
  -1  12  -7 8.23498 1.97599   2
  -2 -12  -7 5.93422 0.88475   3
   2 -12   7 6.79323 1.13546   3
  -2  12  -7 7.24152 1.82799   2
   3 -13  -7 5.80772 0.87349   3
  -3 -13   7 5.92870 1.19583   3
   3  13  -7 3.35334 1.39930   2
   3  13  -7 6.16456 0.96133   3
  -2 -13   7 33.2921 2.12116   3
   2 -13  -7 33.5456 1.81077   3
   2  13  -7 34.9956 1.82382   3
   2  13  -7 37.5187 3.23670   2
  -1 -13   7 11.6845 1.51085   3
   1 -13  -7 13.5503 1.23256   3
   1  13  -7 11.2738 2.14079   2
   1  13  -7 11.6989 1.22139   3
   0 -13  -7 0.38588 0.69972   3
   0 -13   7 2.08784 0.96475   3
   0  13  -7 1.21549 1.09695   2
   1 -13   7 6.03728 1.17160   3
  -1 -13  -7 6.75510 0.91670   3
  -1  13  -7 4.23908 1.36342   2
  -2 -13  -7 2.48911 0.83512   3
   2 -13   7 3.44269 1.09511   3
  -2  13  -7 0.60932 1.31591   2
   1 -14  -7 0.17697 0.75040   3
  -1 -14   7 -0.1055 0.97088   3
   1  14  -7 1.85615 1.24767   2
   0 -14  -7 1.84847 0.80560   3
   0 -14   7 0.45421 0.98755   3
   0  14  -7 -0.5356 1.55330   2
  -6   0   8 2.52907 0.85915   3
   6   0  -8 0.40338 0.72880   3
  -5   0   8 0.59296 0.66034   3
   5   0  -8 1.39977 0.67070   3
   4   0  -8 3.09033 0.69210   3
  -4   0   8 3.72553 0.73760   3
  -3   0   8 515.825 17.6809   3
   3   0  -8 503.020 17.6610   3
  -2   0   8 28.3778 1.63542   3
   2   0  -8 28.7010 1.51424   3
   1   0  -8 13.7082 0.99310   3
  -1   0   8 14.6246 1.22433   3
   0   0   8 3.54343 0.71040   3
   0   0  -8 3.59991 0.56072   3
  -1   0  -8 2.04941 0.49883   3
   1   0   8 3.21653 0.71553   3
  -2   0  -8 9.79581 0.95105   3
  -3   0  -8 86.4612 3.52712   3
  -4   0  -8 3.13949 0.75692   3
  -5   0  -8 66.4994 3.00000   3
  -6  -1   8 0.93436 0.80472   3
   6  -1  -8 0.44922 0.70071   3
  -6   1   8 1.30978 0.83859   3
   6   1  -8 0.22947 0.71519   3
   5  -1  -8 0.67132 0.61910   3
  -5  -1   8 2.50579 0.73052   3
  -5   1   8 1.31557 0.70855   3
   5   1  -8 0.71120 0.61800   3
  -4  -1   8 91.6366 3.77143   3
   4  -1  -8 95.3683 3.77731   3
   4   1  -8 92.1714 3.77632   3
  -4   1   8 96.9438 3.72978   3
  -3  -1   8 82.1314 3.39951   3
   3  -1  -8 82.3319 3.33907   3
   3   1  -8 82.4692 3.35287   3
  -3   1   8 81.6504 3.34006   3
  -2  -1   8 24.0916 1.50366   3
   2  -1  -8 22.1033 1.30518   3
  -2   1   8 21.8839 1.39675   3
   2   1  -8 23.0700 1.32913   3
   1  -1  -8 31.5655 1.54880   3
  -1  -1   8 29.3777 1.69793   3
   1   1  -8 29.0000 1.52516   3
  -1   1   8 28.0032 1.65748   3
   0  -1   8 4.71690 0.81950   3
   0  -1  -8 3.87566 0.56597   3
   0   1   8 3.44221 0.73022   3
   0   1  -8 3.85174 0.58336   3
  -1  -1  -8 2.57698 0.53871   3
   1  -1   8 1.67870 0.63781   3
  -1   1  -8 2.20841 0.58226   3
   1   1   8 3.03508 0.67336   3
  -2  -1  -8 92.2796 3.70955   3
  -2   1  -8 93.3825 3.70883   3
  -3  -1  -8 1.17883 0.56402   3
  -3   1  -8 -0.0170 0.53750   3
  -4  -1  -8 2.10358 0.69449   3
  -4   1  -8 2.14541 0.67669   3
   6  -2  -8 4.91251 0.85465   3
  -6  -2   8 4.51905 0.95456   3
  -6   2   8 6.62774 0.91887   3
   6   2  -8 5.28330 0.95344   3
   5  -2  -8 15.0773 1.29543   3
  -5  -2   8 14.5790 1.37902   3
   5   2  -8 15.4478 1.29304   3
  -5   2   8 15.2663 1.26217   3
   4  -2  -8 1.63098 0.55306   3
  -4  -2   8 2.04840 0.72490   3
  -4   2   8 0.95118 0.60550   3
   4   2  -8 1.32188 0.57206   3
   3  -2  -8 29.6622 1.62422   3
  -3  -2   8 31.7686 1.76839   3
  -3   2   8 31.0233 1.62883   3
   3   2  -8 31.7524 1.63625   3
  -2  -2   8 3.05439 0.69560   3
   2  -2  -8 2.87722 0.53226   3
   2   2  -8 2.90168 0.56456   3
  -2   2   8 3.51950 0.67290   3
   1  -2  -8 43.6870 2.03163   3
  -1  -2   8 43.1504 2.20703   3
  -1   2   8 47.5682 2.15278   3
   1   2  -8 44.3987 2.04913   3
   0  -2  -8 6.10716 0.77488   3
   0  -2   8 6.14415 0.83410   3
   0   2   8 5.85899 0.90197   3
   0   2  -8 6.13580 0.78738   3
  -1  -2  -8 5.04578 0.72893   3
   1  -2   8 6.50493 0.94948   3
  -1   2  -8 4.52921 0.63365   3
   1   2   8 6.40095 0.89774   3
  -2  -2  -8 30.9477 1.63299   3
  -2   2  -8 29.1919 1.60054   3
  -3  -2  -8 69.4383 2.99624   3
  -3   2  -8 71.7826 3.00367   3
  -4  -2  -8 16.5746 1.29968   3
  -4   2  -8 14.9605 1.30238   3
  -6  -3   8 22.6345 1.66785   3
   6  -3  -8 22.7978 1.62048   3
   6   3  -8 19.9674 1.67094   3
   5  -3  -8 12.4016 1.20890   3
  -5  -3   8 15.7064 1.36818   3
   5   3  -8 14.3400 1.26265   3
  -4  -3   8 2.62826 0.76643   3
   4  -3  -8 2.37605 0.63121   3
  -4   3   8 1.94573 0.64940   3
   4   3  -8 2.77876 0.68310   3
   3  -3  -8 0.12841 0.48970   3
  -3  -3   8 0.13158 0.59677   3
  -3   3   8 0.36931 0.52520   3
   2  -3  -8 3.29060 0.57321   3
  -2  -3   8 2.16480 0.66937   3
   2   3  -8 1.96887 0.51378   3
  -2   3   8 1.94403 0.64639   3
  -1  -3   8 2.37537 0.69173   3
   1  -3  -8 3.09965 0.59885   3
  -1   3   8 2.45023 0.74778   3
   1   3  -8 1.93965 0.48709   3
   0  -3  -8 82.1824 3.33364   3
   0  -3   8 83.5795 3.53192   3
   0   3  -8 82.7903 3.33430   3
   0   3   8 84.5066 3.43590   3
   1  -3   8 5.40661 0.89002   3
  -1  -3  -8 6.42024 0.81164   3
   1   3   8 6.60089 0.83506   3
  -1   3  -8 4.58210 0.71015   3
  -2  -3  -8 14.7604 1.14989   3
   2  -3   8 17.7182 1.42282   3
  -2   3  -8 13.6460 1.11691   3
  -3  -3  -8 28.3155 1.61771   3
  -3   3  -8 29.0029 1.61373   3
  -4  -3  -8 3.44679 0.74138   3
  -4   3  -8 2.40060 0.78155   3
  -6  -4   8 35.5622 2.04564   3
   6  -4  -8 32.0903 2.00065   3
   6   4  -8 34.4866 2.11037   3
   5  -4  -8 2.81498 0.71822   3
  -5  -4   8 1.48590 0.81589   3
   5   4  -8 2.45009 0.73749   3
  -5   4   8 2.46200 0.65248   3
  -4  -4   8 5.70462 0.89103   3
   4  -4  -8 4.96017 0.75053   3
  -4   4   8 4.81115 0.69988   3
   4   4  -8 6.03712 0.76232   3
  -3  -4   8 6.90951 0.96592   3
   3  -4  -8 6.32652 0.84857   3
  -3   4   8 6.53275 0.78400   3
   3   4  -8 6.50990 0.85047   3
   2  -4  -8 1.26014 0.49416   3
  -2  -4   8 1.92773 0.64692   3
  -2   4   8 0.11836 0.55002   3
   2   4  -8 2.27043 0.56801   3
  -2   4   8 0.46317 0.53255   3
   1  -4  -8 22.7112 1.30999   3
  -1  -4   8 22.5457 1.54266   3
  -1   4   8 22.8174 1.56090   3
   1   4  -8 23.3148 1.32454   3
   0  -4  -8 0.52459 0.42836   3
   0  -4   8 0.88257 0.59627   3
   0   4   8 1.29882 0.59802   3
   0   4  -8 1.71243 0.47939   3
  -1  -4  -8 2.85445 0.59786   3
   1  -4   8 3.77917 0.82936   3
  -1   4  -8 3.67009 0.59332   3
   1   4   8 4.20749 0.78261   3
  -2  -4  -8 4.16389 0.69396   3
   2  -4   8 5.07441 0.89697   3
  -2   4  -8 4.76555 0.73833   3
   2   4   8 4.28654 0.86458   3
  -3  -4  -8 3.67508 0.67126   3
  -3   4  -8 2.75268 0.67158   3
  -4  -4  -8 0.10095 0.70820   3
  -4   4  -8 -1.0640 0.69766   3
  -5  -5   8 8.77540 1.09748   3
   5  -5  -8 5.95794 0.87592   3
   5   5  -8 7.25688 0.98492   3
   4  -5  -8 0.14142 0.61159   3
  -4  -5   8 0.67569 0.75647   3
   4   5  -8 1.62159 0.64189   3
  -4   5   8 0.32396 0.52169   3
  -3  -5   8 15.3293 1.39078   3
   3  -5  -8 13.1686 1.12077   3
   3   5  -8 14.6749 1.15149   3
  -3   5   8 15.1103 1.07541   3
  -2  -5   8 27.6135 1.71428   3
   2  -5  -8 26.1341 1.46580   3
  -2   5   8 25.4451 1.42677   3
   2   5  -8 25.7347 1.46690   3
  -2   5   8 23.5038 1.44645   3
   1  -5  -8 28.4461 1.51151   3
  -1  -5   8 31.6052 1.80719   3
  -1   5   8 25.2617 1.50665   3
   1   5  -8 27.8697 1.50100   3
  -1   5   8 28.1133 1.56245   3
   0  -5   8 20.3557 1.50149   3
   0  -5  -8 19.5460 1.26166   3
   0   5   8 20.4869 1.37279   3
   0   5  -8 21.2736 1.24670   3
  -1  -5  -8 0.70596 0.52926   3
   1  -5   8 -0.3069 0.61807   3
   1   5   8 1.78898 0.68150   3
  -1   5  -8 0.32827 0.45224   3
  -2  -5  -8 11.8492 1.05141   3
   2  -5   8 11.6207 1.30001   3
  -2   5  -8 11.5134 1.01703   3
   2   5   8 8.94213 1.12132   3
  -3  -5  -8 11.9167 1.19711   3
  -3   5  -8 12.9819 1.16876   3
  -4  -5  -8 3.85034 0.83584   3
  -4   5  -8 2.28391 0.83050   3
   5  -6  -8 -0.0016 0.71402   3
  -5  -6   8 0.93189 0.81690   3
   5   6  -8 1.72208 0.73066   3
  -4  -6   8 20.5833 1.56109   3
   4  -6  -8 19.0167 1.37057   3
   4   6  -8 18.0607 1.35350   3
  -3  -6   8 20.2766 1.53125   3
   3  -6  -8 18.0286 1.29466   3
   3   6  -8 18.7593 1.29316   3
  -3   6   8 19.4427 1.16828   3
   2  -6  -8 11.7946 1.03120   3
  -2  -6   8 13.4652 1.33965   3
  -2   6   8 9.94935 1.02336   3
   2   6  -8 13.0277 1.05263   3
  -1  -6   8 4.42542 0.89354   3
   1  -6  -8 3.80539 0.62438   3
  -1   6   8 4.27780 0.71417   3
   1   6  -8 3.56458 0.60535   3
   0  -6   8 2.29057 0.80614   3
   0  -6  -8 1.15126 0.54301   3
   0   6  -8 1.54171 0.48682   3
  -1  -6  -8 2.14448 0.59015   3
   1  -6   8 2.49747 0.75379   3
   1   6   8 3.47619 0.80169   3
  -1   6  -8 2.06799 0.55273   3
  -2  -6  -8 0.34799 0.56461   3
   2  -6   8 0.39026 0.75304   3
   2   6   8 -0.9863 0.71315   3
  -2   6  -8 -0.3725 0.52072   3
  -3  -6  -8 13.3053 1.27125   3
  -3   6  -8 13.9584 1.25384   3
  -4  -6  -8 3.09247 0.89870   3
  -4   6  -8 1.80086 0.84287   3
   5  -7  -8 1.54244 0.72677   3
  -5  -7   8 2.46573 0.97869   3
   5   7  -8 2.54264 0.83972   3
   4  -7  -8 16.9743 1.33262   3
  -4  -7   8 13.8041 1.46488   3
   4   7  -8 14.0925 1.25614   3
   3  -7  -8 4.59181 0.80561   3
  -3  -7   8 4.40033 0.89473   3
   3   7  -8 3.62765 0.67948   3
   2  -7  -8 1.41399 0.55622   3
  -2  -7   8 2.76597 0.74629   3
   2   7  -8 1.55472 0.53719   3
  -2   7   8 1.81542 0.56551   3
   1  -7  -8 1.15866 0.57643   3
  -1  -7   8 0.12480 0.66670   3
   1   7  -8 0.53758 0.47502   3
  -1   7   8 0.56169 0.57626   3
   0  -7   8 0.84330 0.66487   3
   0  -7  -8 1.49181 0.56869   3
   0   7   8 0.48351 0.64198   3
   0   7  -8 2.29177 0.57881   3
  -1  -7  -8 23.9349 1.45098   3
   1  -7   8 24.8502 1.71875   3
  -1   7  -8 22.4345 1.36793   3
   1   7   8 23.5968 1.58628   3
  -2  -7  -8 1.49984 0.71638   3
   2  -7   8 2.41431 0.83984   3
   2   7   8 4.27755 0.93896   3
  -2   7  -8 3.28113 0.69665   3
  -3  -7  -8 4.33595 0.82118   3
  -3   7  -8 5.19828 0.87346   3
   5  -8  -8 6.00147 0.92676   3
  -4  -8   8 0.96052 0.83238   3
   4  -8  -8 2.40074 0.74901   3
   4   8  -8 0.46333 0.63751   3
  -3  -8   8 -1.4140 0.76757   3
   3  -8  -8 0.63604 0.65607   3
   3   8  -8 0.75572 0.61502   3
  -2  -8   8 2.30211 0.81406   3
   2  -8  -8 3.13369 0.70257   3
   2   8  -8 4.61683 0.70643   3
  -1  -8   8 2.00472 0.74948   3
   1  -8  -8 -0.2863 0.59373   3
   1   8  -8 1.24066 0.53099   3
  -1   8   8 0.33246 0.60250   3
   0  -8   8 76.2747 3.31650   3
   0  -8  -8 72.9884 3.04654   3
   0   8   8 70.4826 2.97261   3
   0   8  -8 69.7844 2.95631   3
   1  -8   8 1.05521 0.83675   3
  -1  -8  -8 3.07037 0.74617   3
   1   8   8 0.38279 0.74888   3
  -1   8  -8 1.93343 0.59232   3
   2  -8   8 31.6502 2.03820   3
  -2  -8  -8 31.1411 1.76689   3
  -2   8  -8 28.3100 1.62013   3
   2   8   8 29.2322 2.03519   3
  -3  -8  -8 6.15817 0.91251   3
   3  -8   8 5.67822 1.15631   3
  -3   8  -8 5.12276 0.85806   3
  -4  -9   8 2.44127 0.92052   3
   4  -9  -8 5.20452 0.93878   3
   4   9  -8 2.67485 0.78506   3
   3  -9  -8 0.77854 0.68978   3
  -3  -9   8 0.57807 0.83531   3
   3   9  -8 0.86186 0.58203   3
  -2  -9   8 4.53529 0.97991   3
   2  -9  -8 5.10502 0.83029   3
   2   9  -8 4.63963 0.74124   3
  -1  -9   8 15.7855 1.50664   3
   1  -9  -8 15.2909 1.27954   3
   1   9  -8 16.9954 1.23128   3
   0  -9   8 11.5630 1.36850   3
   0  -9  -8 7.93202 1.07792   3
   0   9   8 7.13784 0.89058   3
   0   9  -8 7.23314 0.98988   3
  -1  -9  -8 153.413 5.77281   3
   1  -9   8 151.288 6.03443   3
  -1   9  -8 154.053 5.65014   3
   2  -9   8 1.35722 0.91161   3
  -2  -9  -8 1.23081 0.72870   3
   2   9   8 2.69750 1.03700   3
  -2   9  -8 1.72894 0.70419   3
   3  -9   8 14.5465 1.74712   3
  -3  -9  -8 13.3770 1.46025   3
   3   9   8 15.3864 1.64410   3
   3 -10  -8 5.72493 0.95431   3
  -3 -10   8 5.86035 1.15688   3
   3  10  -8 4.61765 0.85064   3
  -2 -10   8 20.2248 1.73223   3
   2 -10  -8 22.4945 1.48139   3
   2  10  -8 19.6672 1.39266   3
  -1 -10   8 -0.8398 0.79418   3
   1 -10  -8 2.32227 0.72719   3
   1  10  -8 -0.4103 0.62168   3
   0 -10   8 12.2221 1.60069   3
   0 -10  -8 12.4908 1.24968   3
   0  10  -8 12.0686 1.17467   3
  -1 -10  -8 31.9368 1.82370   3
   1 -10   8 27.2279 2.02662   3
  -1  10  -8 30.7386 1.66976   3
  -2 -10  -8 -0.4475 0.71797   3
   2 -10   8 1.86983 0.99699   3
   2  10   8 -0.8271 0.99821   3
  -3 -11   8 1.58975 1.10188   3
   3 -11  -8 1.85082 0.84282   3
   3  11  -8 2.02917 0.85959   3
  -2 -11   8 4.36227 1.03425   3
   2 -11  -8 3.92667 0.81538   3
   2  11  -8 5.98550 0.93960   3
  -1 -11   8 121.606 4.95606   3
   1 -11  -8 119.918 4.67188   3
   1  11  -8 118.352 4.58710   3
   0 -11   8 6.16497 1.13833   3
   0 -11  -8 6.04750 0.93758   3
   0  11  -8 7.25018 0.88282   3
  -1 -11  -8 -0.0587 0.77341   3
   1 -11   8 0.22854 1.00933   3
  -1 -12   8 1.35865 1.07559   3
   1 -12  -8 -0.1932 0.80228   3
   1  12  -8 0.27531 0.81073   3
   0 -12  -8 7.86627 1.08074   3
   0 -12   8 12.3508 1.43520   3
   5   0  -9 0.15774 0.84419   3
  -5   0   9 -0.3864 0.87838   3
  -4   0   9 -0.2617 0.81092   3
   4   0  -9 0.43341 0.66483   3
  -3   0   9 -0.9729 0.78222   3
   3   0  -9 -0.0859 0.57702   3
  -2   0   9 0.93217 0.78414   3
   2   0  -9 -1.2033 0.51191   3
   1   0  -9 -0.4462 0.52949   3
  -1   0   9 0.30834 0.76490   3
   0   0   9 0.73338 0.71035   3
   0   0  -9 0.08443 0.55045   3
   1   0   9 0.29464 0.75706   3
  -1   0  -9 0.02582 0.51443   3
  -2   0  -9 0.25073 0.62918   3
   2   0   9 0.86052 0.85487   3
  -3   0  -9 -0.5702 0.70700   3
  -5  -1   9 -0.5739 0.90287   3
   5  -1  -9 1.08749 0.85064   3
   5   1  -9 0.08539 0.84558   3
  -5   1   9 1.93047 0.93387   3
  -4  -1   9 2.28673 0.89251   3
   4  -1  -9 1.59326 0.75172   3
  -4   1   9 3.61926 0.89765   3
   4   1  -9 1.60234 0.72240   3
   3  -1  -9 2.75690 0.69678   3
  -3  -1   9 1.49391 0.85624   3
   3   1  -9 1.83436 0.62318   3
  -3   1   9 4.33535 0.92776   3
   2  -1  -9 -0.6058 0.52610   3
  -2  -1   9 -0.3506 0.75517   3
   2   1  -9 0.55915 0.52341   3
  -2   1   9 0.06877 0.75540   3
   1  -1  -9 13.0753 1.13716   3
  -1  -1   9 16.8241 1.46667   3
  -1   1   9 15.8209 1.46294   3
   1   1  -9 13.4525 1.13224   3
   0  -1  -9 11.5917 1.15516   3
   0  -1   9 14.1880 1.40614   3
   0   1   9 16.5951 1.43971   3
   0   1  -9 15.0432 1.19135   3
   1  -1   9 36.0492 2.15459   3
  -1  -1  -9 36.0038 1.89963   3
  -1   1  -9 36.0959 1.90927   3
   1   1   9 39.2792 2.17850   3
   2  -1   9 3.22382 0.94530   3
  -2   1  -9 3.46102 0.72211   3
   2   1   9 4.41094 1.05027   3
  -3  -1  -9 19.9205 1.52968   3
  -3   1  -9 18.7855 1.45958   3
   5  -2  -9 -0.9171 0.76532   3
  -5  -2   9 1.33479 0.92417   3
   5   2  -9 0.25760 1.00879   3
  -5   2   9 0.47875 0.93429   3
   4  -2  -9 1.08862 0.64577   3
  -4  -2   9 2.13685 0.82485   3
   4   2  -9 0.68907 0.67677   3
  -4   2   9 1.02787 0.89224   3
  -3  -2   9 0.13733 0.81510   3
   3  -2  -9 1.04501 0.59813   3
   3   2  -9 0.09486 0.56593   3
  -3   2   9 1.04239 0.80094   3
   2  -2  -9 -0.1536 0.53616   3
  -2  -2   9 -0.4577 0.68139   3
   2   2  -9 -0.3455 0.54715   3
  -2   2   9 1.61321 0.81782   3
  -1  -2   9 13.4472 1.36059   3
   1  -2  -9 8.59287 1.03956   3
   1   2  -9 9.63926 1.05566   3
  -1   2   9 10.2114 1.35788   3
   0  -2  -9 1.15192 0.62340   3
   0  -2   9 1.16513 0.71822   3
   0   2  -9 1.05785 0.54085   3
   0   2   9 1.29190 0.75863   3
  -1  -2  -9 0.01227 0.55031   3
   1  -2   9 -0.0853 0.75120   3
  -1   2  -9 0.20564 0.56706   3
   1   2   9 -0.1462 0.75381   3
   2  -2   9 162.871 6.35074   3
  -2   2  -9 160.797 6.08586   3
   2   2   9 159.320 6.31407   3
  -3  -2  -9 13.5643 1.39197   3
  -3   2  -9 17.0395 1.37762   3
  -4  -3   9 4.49646 0.96585   3
   4  -3  -9 2.18062 0.76949   3
   4   3  -9 0.83053 0.75966   3
  -4   3   9 3.36296 0.94739   3
  -3  -3   9 1.06174 0.84541   3
   3  -3  -9 0.37864 0.60947   3
  -3   3   9 0.25189 0.79057   3
   3   3  -9 0.37126 0.65227   3
  -2  -3   9 -0.2832 0.78137   3
   2  -3  -9 -0.0226 0.55216   3
   2   3  -9 1.00325 0.54712   3
  -2   3   9 0.37081 0.77513   3
   1  -3  -9 7.31038 0.95697   3
  -1  -3   9 7.71998 1.05303   3
   1   3  -9 6.52043 0.80518   3
  -1   3   9 6.10713 1.02791   3
   0  -3   9 17.3260 1.53346   3
   0  -3  -9 16.9873 1.27870   3
   0   3  -9 19.6113 1.32653   3
   0   3   9 19.9497 1.58824   3
  -1  -3  -9 0.24495 0.58522   3
   1  -3   9 1.90961 0.83228   3
  -1   3  -9 1.52115 0.65897   3
   1   3   9 0.86153 0.82799   3
  -2  -3  -9 1.07639 0.70539   3
   2  -3   9 2.36782 0.87527   3
   2   3   9 1.22134 0.91471   3
  -2   3  -9 1.76869 0.68852   3
  -3  -3  -9 2.90085 0.91012   3
  -3   3  -9 2.42001 0.76376   3
   4  -4  -9 0.21963 0.64179   3
  -4  -4   9 2.53435 0.88774   3
  -4   4   9 0.38031 0.80380   3
   4   4  -9 -0.8405 0.70612   3
   3  -4  -9 3.50764 0.84223   3
  -3  -4   9 2.62326 0.93631   3
   3   4  -9 2.70563 0.73416   3
  -3   4   9 5.26968 0.92206   3
   2  -4  -9 13.7319 1.22036   3
  -2  -4   9 17.1347 1.57290   3
  -2   4   9 14.8698 1.48944   3
   2   4  -9 13.1932 1.17078   3
   1  -4  -9 1.54863 0.64027   3
  -1  -4   9 -0.0381 0.74945   3
   1   4  -9 1.92210 0.57737   3
  -1   4   9 2.07953 0.82048   3
   0  -4  -9 26.3661 1.57461   3
   0  -4   9 24.8835 1.80140   3
   0   4   9 24.8131 1.82003   3
   0   4  -9 26.1585 1.53900   3
  -1  -4  -9 0.85816 0.59506   3
   1  -4   9 0.82068 0.81738   3
   1   4   9 1.60145 0.88481   3
  -1   4  -9 0.33490 0.59802   3
   2  -4   9 13.1480 1.57044   3
  -2  -4  -9 11.6769 1.23405   3
  -2   4  -9 12.8884 1.26051   3
   2   4   9 14.9706 1.66444   3
   3  -4   9 16.2284 2.05216   3
  -3  -4  -9 18.4746 1.72193   3
  -3   4  -9 17.8976 1.47621   3
   3   4   9 19.5489 1.92608   3
  -4  -5   9 0.89004 0.94469   3
   4  -5  -9 0.26098 0.72624   3
   4   5  -9 0.64038 0.75898   3
   3  -5  -9 1.64002 0.74862   3
  -3  -5   9 3.26081 0.96984   3
   3   5  -9 1.08247 0.66895   3
  -3   5   9 1.70857 0.76043   3
   2  -5  -9 1.18853 0.68821   3
  -2  -5   9 0.68785 0.82089   3
   2   5  -9 1.22382 0.64895   3
  -2   5   9 2.39497 0.86436   3
   1  -5  -9 6.35969 0.83174   3
  -1  -5   9 8.17094 1.12001   3
   1   5  -9 5.01987 0.75698   3
  -1   5   9 8.99531 1.07484   3
   0  -5  -9 -0.2860 0.51270   3
   0  -5   9 -0.0241 0.73947   3
   0   5  -9 0.76966 0.56250   3
   0   5   9 0.69084 0.88691   3
  -1  -5  -9 0.18545 0.65361   3
   1  -5   9 0.73525 0.79187   3
   1   5   9 -1.0095 0.84468   3
  -1   5  -9 0.34580 0.60192   3
  -2  -5  -9 12.5477 1.35956   3
   2  -5   9 15.1250 1.71652   3
  -2   5  -9 16.1499 1.34580   3
   2   5   9 20.1520 1.82228   3
  -4  -6   9 13.0584 1.54677   3
   4  -6  -9 19.6192 1.51007   3
   4   6  -9 16.6961 1.58593   3
  -3  -6   9 4.84125 1.03698   3
   3  -6  -9 5.27838 0.89182   3
   3   6  -9 4.17089 0.79098   3
  -2  -6   9 2.83964 0.91230   3
   2  -6  -9 2.52152 0.72345   3
  -2   6   9 3.98719 1.51987   3
   2   6  -9 3.14967 0.74019   3
  -1  -6   9 -0.4135 0.79526   3
   1  -6  -9 -0.7801 0.65983   3
  -1   6   9 0.14622 0.87793   3
   1   6  -9 0.44555 0.54551   3
   0  -6   9 5.38047 1.04558   3
   0  -6  -9 2.59667 0.70270   3
   0   6   9 3.77523 1.04384   3
   0   6  -9 5.38685 0.84777   3
   1  -6   9 10.7616 1.34328   3
  -1  -6  -9 9.89858 1.19139   3
   1   6   9 13.5639 1.42692   3
  -1   6  -9 13.0074 1.20796   3
   2  -6   9 0.52413 1.03980   3
  -2  -6  -9 -1.1901 0.68847   3
   2   6   9 0.70329 1.05212   3
  -2   6  -9 -0.9582 0.68094   3
  -3  -7   9 23.7195 1.97882   3
   3  -7  -9 22.4401 1.61044   3
   3   7  -9 21.2064 1.57637   3
   2  -7  -9 18.3437 1.45478   3
  -2  -7   9 17.0016 1.71990   3
   2   7  -9 16.8354 1.40798   3
   1  -7  -9 1.64865 0.74254   3
  -1  -7   9 1.00903 0.88330   3
   1   7  -9 0.91381 0.66139   3
  -1   7   9 1.15296 0.88103   3
   0  -7   9 13.2738 1.46786   3
   0  -7  -9 12.4866 1.29279   3
   0   7  -9 16.7119 1.28434   3
   0   7   9 15.7877 1.73471   3
   1  -7   9 2.45090 0.96879   3
  -1  -7  -9 3.23775 0.80181   3
  -1   7  -9 0.68212 0.68712   3
   1   7   9 1.22270 1.07231   3
  -2  -7  -9 3.91705 0.88333   3
  -2   7  -9 2.33416 0.85339   3
   3  -8  -9 6.51389 1.06513   3
  -2  -8   9 -0.4232 0.99736   3
   2  -8  -9 -0.2371 0.72612   3
   2   8  -9 -0.2717 0.71690   3
   1  -8  -9 5.52140 0.88279   3
  -1  -8   9 6.73802 1.16969   3
   1   8  -9 5.93703 0.91495   3
   0  -8   9 14.4238 1.62682   3
   0  -8  -9 13.3846 1.32412   3
   0   8   9 14.4217 1.73109   3
   0   8  -9 15.1672 1.33061   3
   1  -8   9 -2.3562 1.05051   3
  -1  -8  -9 1.29343 0.79273   3
  -1   8  -9 1.32579 0.81300   3
   1   8   9 2.40335 1.19243   3
  -1  -9   9 26.5051 2.23038   3
   1  -9  -9 26.0622 1.68924   3
   1   9  -9 22.9211 1.67379   3
   0  -9  -9 53.7381 2.56474   3
   0  -9   9 49.1644 3.03066   3
   0   9  -9 52.8018 2.51161   3
  -2   0  10 0.10238 0.97981   3
   2   0 -10 1.85134 0.80596   3
   1   0 -10 0.72867 0.77434   3
  -1   0  10 2.09121 1.07739   3
   0   0 -10 2.38230 0.82461   3
   0   0  10 1.20366 1.02195   3
  -2  -1  10 11.7214 1.37019   3
   2  -1 -10 7.15978 1.13984   3
   2   1 -10 9.71706 1.19872   3
  -2   1  10 9.55802 1.31512   3
   1  -1 -10 2.08155 0.77141   3
  -1  -1  10 2.24420 1.01581   3
   1   1 -10 1.46663 0.86130   3
  -1   1  10 1.21127 1.04411   3
   0  -1  10 -0.6489 1.08092   3
   0  -1 -10 0.25893 0.77611   3
   0   1  10 -0.2396 1.00607   3
   0   1 -10 1.06732 0.74075   3
   2  -2 -10 17.0275 1.67046   3
  -2  -2  10 19.5379 2.00701   3
  -2   2  10 18.2500 1.96432   3
   2   2 -10 18.4536 1.64826   3
   1  -2 -10 -0.1740 0.74194   3
  -1  -2  10 2.08359 1.07438   3
  -1   2  10 1.73682 1.00835   3
   1   2 -10 0.67534 0.75451   3
   0  -2 -10 10.0435 1.40337   3
   0  -2  10 12.5700 1.57732   3
   0   2 -10 14.0953 1.46991   3
   0   2  10 14.2998 1.51674   3
   2  -3 -10 5.66508 1.02309   3
   2   3 -10 6.35080 1.15957   3
  -1  -3  10 51.8813 2.92271   3
   1  -3 -10 47.9235 2.61583   3
  -1   3  10 56.5558 2.87843   3
   1   3 -10 49.6328 2.58039   3
   0  -3 -10 0.79743 0.96274   3
   0  -3  10 -0.1768 1.09534   3
   0   3 -10 0.26416 0.81704   3
   0   3  10 3.33894 1.15452   3
   0   0   0    0.00    0.00   0
 _exptl_absorpt_process_details 'SADABS 2014/5'
 _exptl_absorpt_correction_type   multi-scan
 _exptl_absorpt_correction_T_max  0.7461
 _exptl_absorpt_correction_T_min  0.7049
 _exptl_special_details
)
 The following wavelength and cell were deduced by SADABS from the
 direction cosines etc. They are given here for emergency use only:
 CELL 0.71059    6.484   13.688    7.142   89.955   95.642   90.018
)
;
_shelx_hkl_checksum              5186
_shelx_res_file
;
TITL KA253_0m_a.res in P2(1)/c
    KA253_0m.res
    created by SHELXL-2018/3 at 15:27:03 on 07-May-2019
CELL  0.71073    6.4847   13.6853    7.1462   90.0000   95.6583   90.0000
ZERR    4.000   0.0001    0.0003    0.0001    0.0000    0.0008    0.0000
LATT 1
SYMM -X, 1/2+Y, 1/2-Z
SFAC C  H  N  O
UNIT 28  36  4  8
LIST 6 ! automatically inserted. Change 6 to 4 for CHECKCIF!!
OMIT 0 8 0
OMIT 4 2 1
L.S. 10
ACTA
BOND $H
FMAP 2
PLAN 5
EQIV $1 -x+1, -y+1, -z+1
EQIV $2 -x, -1/2+y, 1/2-z
EQIV $3 1-x, -1/2+y, 1/2-z
HTAB O1 O2_$1
HTAB C6 O2_$2
HTAB C7 O2_$3
CONF
SIZE 0.33 0.18 0.16
TEMP -173.170
WGHT    0.049500    0.270500
FVAR       0.58377
C1    1    0.393960    0.215442    0.408760    11.00000    0.01001    0.00949 =
         0.00819    0.00029    0.00001    0.00005
C2    1    0.422418    0.314657    0.421681    11.00000    0.00811    0.00956 =
         0.00905   -0.00020   -0.00076   -0.00080
C3    1    0.263231    0.383322    0.356731    11.00000    0.01071    0.00859 =
         0.00942    0.00070   -0.00042   -0.00001
C4    1    0.071671    0.340265    0.285960    11.00000    0.00949    0.01029 =
         0.01470    0.00086   -0.00237    0.00052
AFIX  43
H4    2   -0.042505    0.381175    0.245672    11.00000   -1.20000
AFIX   0
C5    1    0.048893    0.241276    0.274876    11.00000    0.00947    0.01093 =
         0.01305    0.00096   -0.00114   -0.00110
AFIX  43
H5    2   -0.080458    0.214858    0.224970    11.00000   -1.20000
AFIX   0
C6    1    0.169377    0.074003    0.319372    11.00000    0.01597    0.00610 =
         0.01826   -0.00066   -0.00095   -0.00275
AFIX 137
H6A   2    0.030437    0.061554    0.256977    11.00000   -1.50000
H6B   2    0.180813    0.045615    0.445871    11.00000   -1.50000
H6C   2    0.273046    0.044210    0.246263    11.00000   -1.50000
AFIX   0
C7    1    0.561258    0.144036    0.472807    11.00000    0.01213    0.00947 =
         0.01376   -0.00013   -0.00160    0.00276
AFIX 137
H7A   2    0.594896    0.104351    0.365781    11.00000   -1.50000
H7B   2    0.513253    0.101437    0.569862    11.00000   -1.50000
H7C   2    0.685084    0.179601    0.524682    11.00000   -1.50000
AFIX   0
N1    3    0.205091    0.179834    0.332867    11.00000    0.01133    0.00692 =
         0.01000    0.00018   -0.00017   -0.00141
O1    4    0.609520    0.349506    0.495009    11.00000    0.00915    0.00875 =
         0.01907   -0.00193   -0.00415   -0.00109
H1O   2    0.607655    0.412928    0.515138    11.00000    0.04003
O2    4    0.297963    0.474572    0.362207    11.00000    0.01514    0.00668 =
         0.01935    0.00027   -0.00378   -0.00117
HKLF 4
REM  KA253_0m_a.res in P2(1)/c
REM wR2 = 0.1046, GooF = S = 1.068, Restrained GooF = 1.068 for all data
REM R1 = 0.0389 for 1681 Fo > 4sig(Fo) and 0.0462 for all 1922 data
REM 97 parameters refined using 0 restraints
END
WGHT      0.0495      0.2705
REM Highest difference peak  0.426,  deepest hole -0.271,  1-sigma level  0.057
Q1    1   0.3387  0.3468  0.3928  11.00000  0.05    0.43
Q2    1   0.1666  0.3602  0.3198  11.00000  0.05    0.40
Q3    1   0.3986  0.2639  0.4415  11.00000  0.05    0.37
Q4    1   0.0667  0.2953  0.2857  11.00000  0.05    0.30
Q5    1   0.3012  0.1968  0.3733  11.00000  0.05    0.30
;
_shelx_res_checksum              85641
loop_
_space_group_symop_operation_xyz
'x, y, z'
'-x, y+1/2, -z+1/2'
'-x, -y, -z'
'x, -y-1/2, z-1/2'
loop_
_atom_site_type_symbol
_atom_site_label
_atom_site_fract_x
_atom_site_fract_y
_atom_site_fract_z
_atom_site_U_iso_or_equiv
_atom_site_adp_type
_atom_site_calc_flag
_atom_site_occupancy
C C1 0.39396(15) 0.21544(7) 0.40876(13) 0.00929(19) Uani d 1
C C2 0.42242(14) 0.31466(7) 0.42168(13) 0.00901(19) Uani d 1
C C3 0.26323(15) 0.38332(7) 0.35673(13) 0.0097(2) Uani d 1
C C4 0.07167(15) 0.34026(7) 0.28596(14) 0.0117(2) Uani d 1
H H4 -0.042505 0.381175 0.245672 0.014 Uiso calc 1
C C5 0.04889(15) 0.24128(7) 0.27488(14) 0.0113(2) Uani d 1
H H5 -0.080458 0.214858 0.224970 0.014 Uiso calc 1
C C6 0.16938(16) 0.07400(7) 0.31937(15) 0.0136(2) Uani d 1
H H6A 0.030437 0.061554 0.256977 0.020 Uiso calc 1
H H6B 0.180813 0.045615 0.445871 0.020 Uiso calc 1
H H6C 0.273046 0.044210 0.246263 0.020 Uiso calc 1
C C7 0.56126(15) 0.14404(7) 0.47281(14) 0.0120(2) Uani d 1
H H7A 0.594896 0.104351 0.365781 0.018 Uiso calc 1
H H7B 0.513253 0.101437 0.569862 0.018 Uiso calc 1
H H7C 0.685084 0.179601 0.524682 0.018 Uiso calc 1
N N1 0.20509(13) 0.17983(6) 0.33287(12) 0.00950(18) Uani d 1
O O1 0.60952(11) 0.34951(6) 0.49501(11) 0.01269(18) Uani d 1
H H1O 0.608(3) 0.4129(15) 0.515(3) 0.040(5) Uiso d 1
O O2 0.29796(12) 0.47457(5) 0.36221(11) 0.01408(18) Uani d 1
loop_
_atom_site_aniso_label
_atom_site_aniso_U_11
_atom_site_aniso_U_22
_atom_site_aniso_U_33
_atom_site_aniso_U_12
_atom_site_aniso_U_13
_atom_site_aniso_U_23
C1 0.0100(4) 0.0095(4) 0.0082(4) 0.0001(3) 0.0000(3) 0.0003(3)
C2 0.0081(4) 0.0096(4) 0.0091(4) -0.0008(3) -0.0008(3) -0.0002(3)
C3 0.0107(4) 0.0086(4) 0.0094(4) 0.0000(3) -0.0004(3) 0.0007(3)
C4 0.0095(4) 0.0103(4) 0.0147(4) 0.0005(3) -0.0024(3) 0.0009(3)
C5 0.0095(4) 0.0109(5) 0.0130(4) -0.0011(3) -0.0011(3) 0.0010(3)
C6 0.0160(5) 0.0061(4) 0.0183(5) -0.0027(3) -0.0010(4) -0.0007(4)
C7 0.0121(4) 0.0095(4) 0.0138(4) 0.0028(3) -0.0016(3) -0.0001(3)
N1 0.0113(4) 0.0069(4) 0.0100(4) -0.0014(3) -0.0002(3) 0.0002(3)
O1 0.0091(3) 0.0087(3) 0.0191(4) -0.0011(3) -0.0041(3) -0.0019(3)
O2 0.0151(3) 0.0067(3) 0.0193(4) -0.0012(3) -0.0038(3) 0.0003(3)
loop_
_atom_type_symbol
_atom_type_description
_atom_type_scat_dispersion_real
_atom_type_scat_dispersion_imag
_atom_type_scat_source
C C 0.0033 0.0016 'International Tables Vol C Tables 4.2.6.8 and 6.1.1.4'
H H 0.0000 0.0000 'International Tables Vol C Tables 4.2.6.8 and 6.1.1.4'
N N 0.0061 0.0033 'International Tables Vol C Tables 4.2.6.8 and 6.1.1.4'
O O 0.0106 0.0060 'International Tables Vol C Tables 4.2.6.8 and 6.1.1.4'
loop_
_geom_angle_atom_site_label_1
_geom_angle_atom_site_label_2
_geom_angle_atom_site_label_3
_geom_angle
C2 C1 N1 118.99(9)
C2 C1 C7 122.44(9)
N1 C1 C7 118.57(9)
O1 C2 C1 118.82(9)
O1 C2 C3 118.68(9)
C1 C2 C3 122.49(9)
O2 C3 C4 124.40(9)
O2 C3 C2 120.89(9)
C4 C3 C2 114.70(9)
C5 C4 C3 121.19(9)
C5 C4 H4 119.4
C3 C4 H4 119.4
N1 C5 C4 121.81(9)
N1 C5 H5 119.1
C4 C5 H5 119.1
N1 C6 H6A 109.5
N1 C6 H6B 109.5
H6A C6 H6B 109.5
N1 C6 H6C 109.5
H6A C6 H6C 109.5
H6B C6 H6C 109.5
C1 C7 H7A 109.5
C1 C7 H7B 109.5
H7A C7 H7B 109.5
C1 C7 H7C 109.5
H7A C7 H7C 109.5
H7B C7 H7C 109.5
C5 N1 C1 120.75(8)
C5 N1 C6 119.05(8)
C1 N1 C6 120.18(8)
C2 O1 H1O 112.5(12)
loop_
_geom_bond_atom_site_label_1
_geom_bond_atom_site_label_2
_geom_bond_distance
C1 C2 1.3722(13)
C1 N1 1.3786(12)
C1 C7 1.4978(13)
C2 O1 1.3597(11)
C2 C3 1.4386(13)
C3 O2 1.2689(12)
C3 C4 1.4220(13)
C4 C5 1.3642(14)
C4 H4 0.9500
C5 N1 1.3498(13)
C5 H5 0.9500
C6 N1 1.4684(12)
C6 H6A 0.9800
C6 H6B 0.9800
C6 H6C 0.9800
C7 H7A 0.9800
C7 H7B 0.9800
C7 H7C 0.9800
O1 H1O 0.88(2)
loop_
_geom_hbond_atom_site_label_D
_geom_hbond_atom_site_label_H
_geom_hbond_atom_site_label_A
_geom_hbond_site_symmetry_A
_geom_hbond_distance_DH
_geom_hbond_distance_HA
_geom_hbond_distance_DA
_geom_hbond_angle_DHA
_geom_hbond_publ_flag
O1 H1O O2 3_666 0.88(2) 1.85(2) 2.6602(10) 153.0(17) yes
C6 H6A O2 2_545 0.98 2.51 3.4560(13) 161.2 yes
C7 H7A O2 2_645 0.98 2.55 3.5177(13) 168.3 yes
loop_
_geom_torsion_atom_site_label_1
_geom_torsion_atom_site_label_2
_geom_torsion_atom_site_label_3
_geom_torsion_atom_site_label_4
_geom_torsion
N1 C1 C2 O1 -179.40(8)
C7 C1 C2 O1 0.13(14)
N1 C1 C2 C3 -0.81(14)
C7 C1 C2 C3 178.71(9)
O1 C2 C3 O2 2.11(14)
C1 C2 C3 O2 -176.48(9)
O1 C2 C3 C4 -178.77(8)
C1 C2 C3 C4 2.65(13)
O2 C3 C4 C5 176.36(10)
C2 C3 C4 C5 -2.73(14)
C3 C4 C5 N1 1.04(16)
C4 C5 N1 C1 1.02(14)
C4 C5 N1 C6 179.19(9)
C2 C1 N1 C5 -1.11(13)
C7 C1 N1 C5 179.34(9)
C2 C1 N1 C6 -179.26(9)
C7 C1 N1 C6 1.20(13)

_cod_database_fobs_code 2021969
