#------------------------------------------------------------------------------
#$Date: 2019-12-26 21:49:16 +0200 (Thu, 26 Dec 2019) $
#$Revision: 246120 $
#$URL: file:///home/coder/svn-repositories/cod/cif/2/02/19/2021921.cif $
#------------------------------------------------------------------------------
#
# This file is available in the Crystallography Open Database (COD),
# http://www.crystallography.net/. The original data for this entry
# were provided by IUCr Journals, http://journals.iucr.org/.
#
# The file may be used within the scientific community so long as
# proper attribution is given to the journal article from which the
# data were obtained.
#
data_2021921
loop_
_publ_author_name
'Shukla, Rahul'
'Ruzi\'e, Christian'
'Schweicher, Guillaume'
'Kennedy, Alan R.'
'Geerts, Yves H.'
'Chopra, Deepak'
'Chattopadhyay, Basab'
_publ_section_title
;
 Insight from electron density and energy framework analysis on the
 structural features of F&#x000D; x&#x000D; -TCNQ (x = 0, 2, 4) family of
 molecules
;
_journal_coeditor_code           AW5018SUP1
_journal_issue                   1
_journal_name_full
'Acta Crystallographica Section B Structural Science, Crystal Engineering and Materials'
_journal_page_first              71
_journal_paper_doi               10.1107/S2052520618017109
_journal_volume                  75
_journal_year                    2019
_chemical_formula_moiety         'C12 H2 F2 N4'
_chemical_formula_sum            'C12 H2 F2 N4'
_chemical_formula_weight         240.18
_space_group_crystal_system      monoclinic
_space_group_IT_number           12
_space_group_name_Hall           '-C 2y'
_space_group_name_H-M_alt        'C 1 2/m 1'
_atom_sites_solution_hydrogens   difmap
_audit_creation_method           SHELXL-2014/7
_cell_angle_alpha                90
_cell_angle_beta                 106.969(7)
_cell_angle_gamma                90
_cell_formula_units_Z            2
_cell_length_a                   10.1713(19)
_cell_length_b                   5.8670(12)
_cell_length_c                   8.8512(17)
_cell_measurement_reflns_used    3976
_cell_measurement_temperature    100(2)
_cell_measurement_theta_max      30.36
_cell_measurement_theta_min      2.41
_cell_volume                     505.20(17)
_computing_cell_refinement       'Bruker SAINT'
_computing_data_collection       'Bruker APEX2'
_computing_data_reduction        'Bruker SAINT'
_computing_molecular_graphics    'Bruker SHELXTL'
_computing_publication_material  'Bruker SHELXTL'
_computing_structure_refinement  'SHELXL-2014 (Sheldrick 2014)'
_computing_structure_solution    'SHELXS-97 (Sheldrick 2008)'
_diffrn_ambient_temperature      100(2)
_diffrn_measured_fraction_theta_full 1.000
_diffrn_measured_fraction_theta_max 0.995
_diffrn_measurement_device_type  'Bruker APEX-II CCD'
_diffrn_measurement_method       '\f and \w scans'
_diffrn_radiation_type           MoK\a
_diffrn_radiation_wavelength     0.71073
_diffrn_reflns_av_R_equivalents  0.0591
_diffrn_reflns_av_unetI/netI     0.0309
_diffrn_reflns_Laue_measured_fraction_full 1.000
_diffrn_reflns_Laue_measured_fraction_max 0.995
_diffrn_reflns_limit_h_max       14
_diffrn_reflns_limit_h_min       -11
_diffrn_reflns_limit_k_max       8
_diffrn_reflns_limit_k_min       -8
_diffrn_reflns_limit_l_max       12
_diffrn_reflns_limit_l_min       -12
_diffrn_reflns_number            8822
_diffrn_reflns_point_group_measured_fraction_full 1.000
_diffrn_reflns_point_group_measured_fraction_max 0.995
_diffrn_reflns_theta_full        25.242
_diffrn_reflns_theta_max         30.547
_diffrn_reflns_theta_min         2.406
_exptl_absorpt_coefficient_mu    0.127
_exptl_absorpt_correction_type   none
_exptl_crystal_colour            yellow
_exptl_crystal_density_diffrn    1.579
_exptl_crystal_description       block
_exptl_crystal_F_000             240
_exptl_crystal_size_max          0.23
_exptl_crystal_size_mid          0.18
_exptl_crystal_size_min          0.13
_exptl_transmission_factor_max   0.7467
_exptl_transmission_factor_min   0.6920
_refine_diff_density_max         0.447
_refine_diff_density_min         -0.278
_refine_diff_density_rms         0.062
_refine_ls_extinction_coef       0.027(5)
_refine_ls_extinction_expression Fc^*^=kFc[1+0.001xFc^2^\l^3^/sin(2\q)]^-1/4^
_refine_ls_extinction_method     'SHELXL-2014/7 (Sheldrick 2014'
_refine_ls_goodness_of_fit_ref   1.095
_refine_ls_hydrogen_treatment    refall
_refine_ls_matrix_type           full
_refine_ls_number_parameters     59
_refine_ls_number_reflns         849
_refine_ls_number_restraints     1
_refine_ls_restrained_S_all      1.095
_refine_ls_R_factor_all          0.0622
_refine_ls_R_factor_gt           0.0469
_refine_ls_shift/su_max          0.000
_refine_ls_shift/su_mean         0.000
_refine_ls_structure_factor_coef Fsqd
_refine_ls_weighting_details
'w=1/[\s^2^(Fo^2^)+(0.0384P)^2^+0.6736P] where P=(Fo^2^+2Fc^2^)/3'
_refine_ls_weighting_scheme      calc
_refine_ls_wR_factor_gt          0.1018
_refine_ls_wR_factor_ref         0.1091
_reflns_Friedel_coverage         0.000
_reflns_number_gt                688
_reflns_number_total             849
_reflns_threshold_expression     'I > 2\s(I)'
_cod_data_source_file            aw5018sup1.cif
_cod_data_source_block           F2-TCNQ
_cod_original_sg_symbol_H-M      'C 2/m'
_cod_database_code               2021921
_shelx_shelxl_version_number     2014/7
_shelx_space_group_comment
;
The symmetry employed for this shelxl refinement is uniquely defined
by the following loop, which should always be used as a source of
symmetry information in preference to the above space-group names.
They are only intended as comments.
;
_shelx_res_file
;

    shelx.res created by SHELXL-2014/7


TITL TRY1_a.res in C2/m
CELL  0.71073  10.1713   5.8670   8.8512   90.000  106.969   90.000
ZERR    2.000   0.0019   0.0012   0.0017    0.000    0.007    0.000
LATT 7
SYMM -X, Y, -Z
SFAC C  H  F  N
UNIT 24  4  4  8
L.S. 10
BOND $H
ACTA
FMAP 2
PLAN 10
DFIX 1.083 0.001 C5 H5
TEMP -173.110
WGHT    0.038400    0.673600
EXTI    0.026693
FVAR       0.74857
F1    3    0.761253    0.500000    0.979379    10.50000    0.01444    0.02966 =
         0.01561    0.00000    0.00827    0.00000
N1    4    0.332182    0.500000    0.449226    10.50000    0.01963    0.02480 =
         0.01530    0.00000    0.00657    0.00000
N2    4    0.022271    0.500000    0.696290    10.50000    0.02093    0.02969 =
         0.01933    0.00000    0.00477    0.00000
C5    1    0.527912    0.500000    0.852382    10.50000    0.01764    0.01514 =
         0.01208    0.00000    0.00732    0.00000
C6    1    0.631397    0.500000    0.987323    10.50000    0.01425    0.01529 =
         0.01374    0.00000    0.00721    0.00000
C2    1    0.137780    0.500000    0.709055    10.50000    0.01969    0.01850 =
         0.01143    0.00000    0.00576    0.00000
C4    1    0.387351    0.500000    0.856836    10.50000    0.01741    0.01159 =
         0.01248    0.00000    0.00602    0.00000
C1    1    0.309676    0.500000    0.568934    10.50000    0.01523    0.01772 =
         0.01281    0.00000    0.00279    0.00000
C3    1    0.280960    0.500000    0.718747    10.50000    0.01758    0.01456 =
         0.01363    0.00000    0.00662    0.00000
H5    2    0.549110    0.500000    0.739402    10.50000    0.01738
HKLF 4

REM  TRY1_a.res in C2/m
REM R1 =  0.0469 for     688 Fo > 4sig(Fo)  and  0.0622 for all     849 data
REM     59 parameters refined using      1 restraints

END

WGHT      0.0389      0.6670

REM Highest difference peak  0.447,  deepest hole -0.278,  1-sigma level  0.062
Q1    1   0.5808  0.5000  0.9179  10.50000  0.05    0.45
Q2    1   0.4586  0.5000  0.8631  10.50000  0.05    0.37
Q3    1   0.3282  0.5000  0.7898  10.50000  0.05    0.31
Q4    1   0.6245  0.5000  1.0609  10.50000  0.05    0.30
Q5    1   0.2168  0.5000  0.7225  10.50000  0.05    0.29
Q6    1   0.5523  0.5000  0.7965  10.50000  0.05    0.24
Q7    1   0.0580  0.5000  0.6273  10.50000  0.05    0.24
Q8    1   0.2653  0.5000  0.4818  10.50000  0.05    0.24
Q9    1   0.6867  0.5000  0.9793  10.50000  0.05    0.24
Q10   1   0.2947  0.5000  0.6535  10.50000  0.05    0.23
;
_shelx_res_checksum              55494
_shelx_hkl_file
;
   2   0   0  591.94   27.60
   2   0   0  591.74   27.60
   2   0   0  587.44   27.60
  -2   0   0  629.14   27.60
  -2   0   0  583.34   27.60
  -4   0   0   88.59    4.40
   4   0   0   88.39    4.50
   4   0   0   88.29    4.60
   4   0   0   88.19    4.50
   6   0   0   57.09    3.50
   6   0   0   50.99    3.30
   6   0   0   49.90    3.70
   6   0   0   51.29    3.00
   8   0   0  208.48   10.60
   8   0   0  195.18   10.10
   8   0   0  190.68   10.20
   8   0   0  189.28   10.70
  10   0   0   11.70    2.80
  12   0   0   17.00    4.10
  12   0   0   30.00    4.90
   1  -1   0  649.14   31.00
  -1  -1   0  629.94   30.90
   1  -1   0  662.93   30.90
  -1  -1   0  659.33   31.00
   1  -1   0  656.83   30.90
  -1  -1   0  669.13   31.10
  -1  -1   0  698.93   31.00
  -1  -1   0  668.13   30.80
   1  -1   0  687.53   31.00
  -1  -1   0  690.23   31.10
   1  -1   0  633.04   31.00
   1   1   0  656.73   31.00
  -1   1   0  686.23   31.00
   1   1   0  633.44   31.00
  -1   1   0  670.93   31.00
  -1   1   0  688.33   30.90
  -1   1   0  684.63   30.90
  -1   1   0  651.93   31.00
  -1   1   0  720.63   31.10
   1   1   0  645.54   31.10
   1   1   0  646.24   30.90
   1   1   0  665.03   31.00
   3  -1   0 1046.90   50.79
   3  -1   0 1091.39   50.89
   3  -1   0 1049.09   50.89
  -3  -1   0 1048.50   50.99
  -3  -1   0 1018.40   50.79
  -3  -1   0 1118.69   50.99
   3  -1   0 1108.89   50.89
  -3  -1   0 1144.89   50.89
  -3   1   0 1168.38   50.89
   3   1   0 1037.60   50.89
  -3   1   0 1094.79   50.79
  -3   1   0 1109.79   50.69
   3   1   0 1116.19   50.99
   3   1   0 1126.69   50.89
   3   1   0 1149.08   50.79
   3   1   0 1093.89   50.89
  -3   1   0 1075.59   50.79
  -3   1   0 1128.59   50.89
   5  -1   0    9.10    1.40
   5  -1   0    8.20    1.30
  -5  -1   0    8.50    1.40
   5  -1   0    7.50    1.40
   5  -1   0    8.70    1.40
  -5  -1   0    7.50    1.30
   5   1   0    7.40    1.20
   5   1   0    7.50    1.40
   5   1   0    8.40    1.50
  -5   1   0    9.20    1.50
   5   1   0    7.00    1.40
  -7  -1   0    1.60    1.20
   7  -1   0    2.10    1.30
   7  -1   0    1.00    1.40
   7  -1   0   -1.50    0.90
   7  -1   0    0.80    1.60
   7   1   0   -1.00    1.40
   7   1   0    0.90    1.30
  -7   1   0    1.60    1.40
   7   1   0    0.40    1.20
   7   1   0    0.20    1.40
   9  -1   0    8.90    2.40
   9  -1   0    4.20    1.60
   9  -1   0    5.20    2.30
   9  -1   0    5.90    2.00
   9   1   0    7.00    1.80
   9   1   0    4.80    2.10
  11  -1   0   10.70    3.80
  11  -1   0    8.10    4.20
  11  -1   0   16.20    3.50
  11   1   0   14.30    3.30
  11   1   0   16.90    4.10
  11   1   0   17.70    5.50
  11   1   0   17.80    3.00
  13  -1   0   60.39    9.30
  13   1   0   60.49    9.50
  13   1   0   48.50    7.00
   0  -2   0 9999.00  431.06
   0   2   0 9689.43  431.36
   0   2   0 9613.84  431.16
   0   2   0 8153.28  430.96
   2  -2   0  346.87   18.00
  -2  -2   0  360.26   17.90
   2  -2   0  364.26   17.70
  -2  -2   0  352.96   17.70
   2  -2   0  367.76   17.80
  -2  -2   0  377.16   17.40
  -2  -2   0  374.86   18.00
   2  -2   0  378.46   17.90
   2  -2   0  387.16   17.60
  -2  -2   0  368.26   17.90
  -2   2   0  373.96   17.50
  -2   2   0  360.86   17.80
   2   2   0  383.16   18.00
  -2   2   0  423.36   18.10
   2   2   0  368.46   18.00
   2   2   0  369.66   17.90
  -2   2   0  377.06   17.90
   2   2   0  360.86   17.70
  -2   2   0  379.86   17.70
  -2   2   0  384.56   17.90
   2   2   0  355.76   17.90
  -4  -2   0   53.29    3.70
   4  -2   0   52.09    3.80
  -4  -2   0   53.79    3.80
   4  -2   0   54.79    3.70
  -4  -2   0   54.09    3.60
  -4  -2   0   53.29    3.80
   4  -2   0   51.39    3.60
   4  -2   0   54.59    3.60
  -4   2   0   52.19    3.30
  -4   2   0   59.49    3.50
   4   2   0   58.39    3.70
   4   2   0   51.39    3.50
  -4   2   0   56.59    3.60
  -4   2   0   52.79    3.40
   4   2   0   55.49    3.70
  -4   2   0   55.79    3.60
   4   2   0   54.89    3.80
   4   2   0   58.69    3.60
   6  -2   0   43.80    3.10
   6  -2   0   37.90    3.30
   6  -2   0   38.30    3.30
  -6  -2   0   36.00    3.70
   6  -2   0   35.80    3.60
  -6  -2   0   38.80    3.20
   6  -2   0   40.00    3.70
   6   2   0   36.00    3.30
   6   2   0   39.20    3.40
   6   2   0   42.50    3.50
   6   2   0   37.00    3.20
   6   2   0   36.90    3.30
  -6   2   0   33.80    3.40
  -6   2   0   40.40    3.50
   8  -2   0  151.28    9.20
   8  -2   0  162.38    9.30
   8  -2   0  172.58    8.70
   8  -2   0  160.98    9.30
  -8  -2   0  166.78    9.10
   8  -2   0  152.78    9.00
   8   2   0  160.58    9.00
   8   2   0  151.78    9.00
  -8   2   0  162.08    8.70
   8   2   0  167.88    9.60
   8   2   0  153.68    8.90
  10  -2   0   13.80    3.10
  10  -2   0    8.30    3.30
  10  -2   0   12.60    3.60
  10  -2   0    6.40    2.30
 -10  -2   0    9.70    3.40
  10   2   0    3.60    3.50
  10   2   0    7.60    3.20
  10   2   0    8.10    3.30
  10   2   0   11.40    2.80
  12  -2   0   25.90    5.00
  12  -2   0   21.20    6.00
  12  -2   0   26.40    5.40
  12  -2   0   14.80    3.80
  12   2   0   23.00    5.60
  12   2   0   22.60    4.00
  12   2   0   24.60    5.00
  -1  -3   0  208.58   10.30
  -1  -3   0  205.58   10.60
  -1  -3   0  211.48   10.80
   1  -3   0  207.58   10.60
   1  -3   0  211.68   10.60
   1  -3   0  212.18   10.50
   1   3   0  214.08   10.80
   1   3   0  211.88   11.10
  -1   3   0  221.18   10.60
   1   3   0  211.48   10.60
  -1   3   0  220.28   10.60
   1   3   0  202.08   10.80
  -1   3   0  219.88   10.90
   1   3   0  214.18   11.20
  -1   3   0  187.28   10.90
   1   3   0  208.78   10.80
  -1   3   0  204.08   10.90
  -1   3   0  221.08   10.80
  -1   3   0  209.88   11.20
   3  -3   0  386.26   19.60
   3  -3   0  416.96   19.80
  -3  -3   0  397.56   18.70
   3  -3   0  408.36   19.20
  -3  -3   0  383.96   19.30
   3  -3   0  392.86   19.50
   3  -3   0  428.36   19.00
  -3  -3   0  406.66   19.70
  -3  -3   0  398.46   19.70
  -3  -3   0  375.86   19.50
   3  -3   0  385.36   19.30
  -3   3   0  383.26   19.80
  -3   3   0  394.56   19.40
   3   3   0  400.26   19.50
  -3   3   0  418.96   19.60
  -3   3   0  392.66   18.90
  -3   3   0  416.26   19.60
  -3   3   0  398.86   19.20
   3   3   0  370.96   19.60
  -3   3   0  392.06   19.30
   3   3   0  390.76   19.50
   5  -3   0    6.10    2.20
  -5  -3   0    3.50    1.70
   5  -3   0    5.70    2.00
  -5  -3   0    7.80    2.20
  -5  -3   0    3.60    2.30
   5  -3   0    4.80    1.40
   5  -3   0    5.10    1.60
   5  -3   0    5.60    1.70
   5   3   0    2.20    2.20
   5   3   0    5.90    1.70
  -5   3   0    6.10    2.10
  -5   3   0    6.70    1.50
  -5   3   0    3.10    1.50
   5   3   0    4.00    2.00
   5   3   0    4.00    1.90
   5   3   0    4.60    1.80
   7  -3   0   -0.80    1.90
  -7  -3   0    1.50    2.00
   7  -3   0    2.00    2.60
   7  -3   0    2.70    2.10
   7  -3   0    1.80    1.80
  -7  -3   0   -1.60    2.10
   7  -3   0   -1.80    2.30
  -7  -3   0    5.60    2.80
   7   3   0    2.30    2.40
   7   3   0    1.90    1.90
   7   3   0    1.70    2.20
  -7   3   0    3.10    1.70
  -7   3   0    2.90    2.30
   7   3   0   -0.40    2.20
  -7   3   0    2.90    1.60
   7   3   0    0.50    2.30
  -7   3   0   -0.10    2.20
   9  -3   0   -3.20    2.30
   9  -3   0    9.20    3.60
   9  -3   0   -2.30    2.70
   9  -3   0    4.30    3.90
  -9  -3   0   -0.90    3.40
   9  -3   0    1.80    2.60
   9   3   0   -1.50    2.80
   9   3   0    2.70    2.90
   9   3   0   -0.90    3.30
   9   3   0    3.40    2.60
  11  -3   0    8.70    3.90
  11  -3   0    7.70    4.60
  11  -3   0   17.50    5.00
  11  -3   0   12.50    5.10
  11  -3   0   10.40    5.80
 -11  -3   0    6.30    5.10
  11   3   0    9.30    4.70
 -11   3   0    5.20    4.80
 -11   3   0    7.20    5.40
  11   3   0    3.40    4.10
   0  -4   0 3513.65  167.18
   0  -4   0 3662.83  166.88
   0  -4   0 3554.34  167.28
   0   4   0 3491.95  167.78
   0   4   0 3503.95  167.28
   0   4   0 3603.54  167.68
   0   4   0 3700.83  167.38
   0   4   0 3886.91  167.58
   0   4   0 3632.24  167.88
   0   4   0 3482.05  167.48
   0   4   0 3700.53  167.08
  -2  -4   0  129.49    6.70
  -2  -4   0  117.99    7.10
   2  -4   0  120.69    7.30
   2  -4   0  130.89    7.00
   2  -4   0  129.39    7.10
   2   4   0  124.59    7.70
  -2   4   0  123.89    6.90
  -2   4   0  129.09    7.40
   2   4   0  122.99    7.80
  -2   4   0  114.89    7.30
   2   4   0  125.89    7.60
  -2   4   0  114.19    7.60
  -2   4   0  129.09    8.20
   2   4   0  134.09    7.40
  -2   4   0  124.89    7.40
   2   4   0  118.49    7.90
   2   4   0  118.29    7.90
  -2   4   0  133.49    7.70
   2   4   0  118.79    7.30
  -2   4   0  121.09    8.00
  -4  -4   0   10.10    2.10
   4  -4   0   17.60    2.70
   4  -4   0   11.80    2.40
   4  -4   0   11.10    1.80
   4  -4   0   12.00    2.60
  -4  -4   0   11.80    2.30
  -4  -4   0   13.80    2.00
  -4   4   0   11.40    1.80
   4   4   0   12.40    2.50
  -4   4   0   11.10    2.10
   4   4   0   11.80    3.00
  -4   4   0    9.50    2.30
  -4   4   0   14.40    3.50
  -4   4   0   18.20    3.10
  -4   4   0   10.50    2.70
   4   4   0   14.70    2.70
  -4   4   0   13.40    3.10
   4   4   0    9.80    2.60
   4   4   0   10.70    2.40
   6  -4   0   25.60    5.20
  -6  -4   0   29.00    4.40
  -6  -4   0   23.30    4.30
   6  -4   0   23.60    4.10
   6  -4   0   27.00    3.80
   6  -4   0   25.20    3.60
  -6   4   0   25.30    3.90
  -6   4   0   25.30    4.50
   6   4   0   23.60    3.80
   6   4   0   25.60    3.90
   6   4   0   26.40    4.40
   6   4   0   23.90    4.10
  -6   4   0   18.60    3.50
  -6   4   0   18.30    3.00
  -6   4   0   16.70    3.30
  -6   4   0   24.70    4.60
   6   4   0   24.80    3.90
  -8  -4   0   93.99    7.40
   8  -4   0   90.79    8.30
   8  -4   0   94.09    8.70
   8  -4   0   78.29    6.60
   8  -4   0  105.29    7.50
   8  -4   0   83.49    7.60
  -8   4   0   95.49    6.30
   8   4   0   91.59    7.70
  -8   4   0   76.49    7.60
  -8   4   0   99.19    7.80
  -8   4   0   75.59    8.50
   8   4   0   89.69    7.30
   8   4   0   94.09    7.90
   8   4   0   94.49    7.20
  -8   4   0   85.89    6.40
  10  -4   0   -4.10    3.80
  10  -4   0    2.30    4.20
  10  -4   0    5.70    5.60
  10  -4   0    3.90    4.10
  10   4   0    2.70    5.10
  10   4   0    7.30    3.50
 -10   4   0   11.90    5.40
  10   4   0    6.60    4.60
 -10   4   0    6.10    5.70
  12  -4   0   -0.50    6.70
  12  -4   0   22.10    6.80
  12   4   0   15.80    6.10
  12   4   0   15.40    7.60
   1  -5   0   76.89    5.70
  -1  -5   0   72.89    5.50
  -1  -5   0   76.79    5.10
   1  -5   0   72.09    5.20
  -1  -5   0   73.89    5.70
   1  -5   0   73.39    5.40
   1   5   0   74.89    6.10
  -1   5   0   63.69    6.40
   1   5   0   74.49    5.60
  -1   5   0   72.59    5.90
  -1   5   0   80.09    5.70
   1   5   0   76.29    6.90
  -1   5   0   81.09    6.90
  -1   5   0   88.39    7.30
  -1   5   0   70.59    6.00
  -1   5   0   71.49    5.30
   1   5   0   83.49    6.90
   1   5   0   72.39    6.90
   1   5   0   82.29    6.00
  -1   5   0   70.69    6.90
   1   5   0   73.29    6.40
   1   5   0   78.49    7.00
   3  -5   0  131.79    8.30
  -3  -5   0  143.89   10.30
  -3  -5   0  125.89    7.20
  -3  -5   0  117.69    7.90
   3  -5   0  124.09    7.60
  -3   5   0  125.49    9.50
  -3   5   0  125.69    8.40
  -3   5   0  110.99    9.20
  -3   5   0  123.29    8.20
   3   5   0  124.99    9.20
   3   5   0  123.99    9.20
   3   5   0  120.99    8.50
   3   5   0  112.59    8.80
  -3   5   0  129.99    7.40
  -3   5   0  135.09    8.90
   3   5   0  130.19    8.20
   3   5   0  140.69    9.30
  -3   5   0  152.58    9.20
   3   5   0  122.19    8.20
   5  -5   0    3.20    1.90
   5  -5   0    3.00    3.10
   5  -5   0   11.30    2.90
  -5  -5   0    5.90    2.70
  -5  -5   0    5.20    1.80
  -5   5   0    5.80    3.10
   5   5   0    8.60    3.50
   5   5   0    6.90    2.60
   5   5   0   -1.50    4.10
   5   5   0    6.10    3.60
  -5   5   0   10.80    3.60
  -5   5   0   12.80    4.30
   5   5   0    4.90    3.70
  -5   5   0    2.00    3.70
  -5   5   0    6.10    3.20
   5   5   0    2.40    3.90
  -5   5   0    5.30    1.80
  -7  -5   0    3.20    3.60
   7  -5   0    3.40    3.50
  -7  -5   0    0.40    4.40
   7  -5   0   -5.30    3.40
   7  -5   0   -5.60    3.00
   7   5   0   -1.30    4.00
  -7   5   0   -4.90    4.70
  -7   5   0    4.20    5.00
  -7   5   0    1.60    4.60
  -7   5   0   -2.30    3.40
   7   5   0   -4.50    4.10
  -7   5   0   -3.50    3.00
   7   5   0   -2.00    4.40
  -7   5   0   -0.50    3.70
  -7   5   0    3.40    4.80
   7   5   0   -3.20    3.20
   9  -5   0    8.10    5.10
  -9   5   0    9.90    6.80
   9   5   0    8.90    5.30
   9   5   0    7.60    4.00
   9   5   0    0.40    5.50
   9   5   0    4.60    5.30
  -9   5   0   -0.20    6.70
  11  -5   0   20.70    7.70
  11  -5   0   16.70    7.70
  11   5   0   -4.60    5.30
  11   5   0    2.60    8.20
  11   5   0  -13.70    7.60
   0  -6   0 1125.09   56.69
   0  -6   0 1217.68   56.49
   0   6   0 1183.98   57.59
   0   6   0 1210.38   56.49
   0   6   0 1137.09   56.49
   0   6   0 1237.68   57.89
   0   6   0 1162.48   58.09
   0   6   0 1122.99   57.39
   0   6   0 1226.78   57.59
   0   6   0 1234.08   57.29
   2  -6   0   37.30    5.70
  -2  -6   0   36.80    4.80
   2  -6   0   32.60    4.80
   2  -6   0   30.50    5.20
  -2  -6   0   32.30    4.60
  -2  -6   0   39.90    6.10
   2   6   0   25.10    5.70
   2   6   0   41.20    6.00
  -2   6   0   47.00    8.10
   2   6   0   30.60    5.00
   2   6   0   36.00    6.50
   2   6   0   22.90    5.60
  -2   6   0   36.40    6.30
   2   6   0   22.60    5.20
  -2   6   0   27.00    4.70
  -2   6   0   42.80    4.60
   2   6   0   41.00    6.20
  -2   6   0   33.70    5.90
  -2   6   0   43.10    6.50
   2   6   0   38.30    7.10
  -2   6   0   41.00    7.60
  -4  -6   0    0.70    2.70
   4  -6   0   -2.20    3.40
   4  -6   0   -2.20    3.00
  -4  -6   0   -5.60    3.80
   4  -6   0    1.80    2.90
  -4  -6   0   -0.50    3.00
  -4   6   0    1.90    3.70
   4   6   0   -2.80    4.10
  -4   6   0    0.30    3.50
   4   6   0   -6.40    5.10
  -4   6   0   -5.50    5.20
   4   6   0    0.70    5.40
  -4   6   0    1.80    2.60
   4   6   0   -1.10    3.40
   4   6   0   -1.40    4.40
  -4   6   0   -4.70    4.30
   4   6   0    5.30    4.70
  -4   6   0    0.30    4.40
   4   6   0   -5.10    4.70
  -4   6   0   -1.00    5.10
   4   6   0    2.10    4.20
   6  -6   0   15.00    4.90
  -6  -6   0   19.90    4.80
  -6   6   0   10.70    4.70
   6   6   0   16.60    5.80
   6   6   0   11.50    6.60
   6   6   0    9.80    4.20
  -6   6   0   19.10    6.60
  -6   6   0   20.40    6.90
   6   6   0    6.70    5.90
   6   6   0    7.20    6.70
  -6   6   0   14.30    6.30
   6   6   0   10.90    5.20
  -8  -6   0   33.80    7.00
   8  -6   0   29.70    6.80
   8   6   0   42.10    7.40
  -8   6   0   41.70    9.10
  -8   6   0   25.70    8.60
   8   6   0   35.70    7.40
   8   6   0   61.89   12.20
  -8   6   0   18.20    6.90
   8   6   0   59.89   12.30
  -1  -7   0   35.10    5.30
   1  -7   0   34.90    5.90
  -1  -7   0   52.99    7.80
   1  -7   0   37.80    6.20
   1   7   0   41.40    6.80
   1   7   0   30.90    6.10
  -1   7   0   27.60    7.80
  -1   7   0   46.20    6.10
  -1   7   0   35.40    7.60
   1   7   0   39.90    7.50
   1   7   0   44.20    7.40
   1   7   0   67.29   13.10
   1   7   0   37.20    7.80
  -1   7   0   54.89   10.70
  -1   7   0   37.50    6.10
  -3  -7   0   46.90    6.80
   3  -7   0   52.29    7.80
   3  -7   0   37.60    5.70
  -3  -7   0   62.29    8.00
  -3   7   0   42.10    8.60
  -3   7   0   48.00    9.20
  -3   7   0   32.80    8.10
   3   7   0   29.20    8.20
   3   7   0   44.40    7.50
   3   7   0   34.10    8.00
  -3   7   0   35.50    6.20
   3   7   0   41.10    8.30
   3   7   0   44.00    7.40
   3   7   0   54.99    9.80
  -5  -7   0    0.50    5.20
   5  -7   0    0.10    5.40
   5   7   0    8.60    4.60
   5   7   0    3.00    6.40
  -5   7   0   -4.40    7.70
   5   7   0   18.00    7.50
   5   7   0   -1.70    9.10
  -5   7   0   -1.40    3.70
   5   7   0    4.00    7.30
  -5   7   0   13.90    8.60
  -5   7   0   -2.70    5.60
   5   7   0    6.50   13.30
   7  -7   0   -6.00    6.90
  -7  -7   0   -1.90    7.00
  -7   7   0   -9.00   10.30
   7   7   0   -5.70    5.70
   7   7   0   19.60    8.60
   7   7   0   -0.30    8.40
   7   7   0   20.10    8.50
  -7   7   0    3.30    6.90
   0  -8   0  425.76   22.80
   0   8   0  395.36   22.30
   0   8   0  332.67   23.40
   0   8   0  412.06   25.50
   0   8   0  381.76   26.10
  -2  -8   0   -1.40    6.50
   2  -8   0    6.30    6.80
  -2   8   0   22.60   10.40
   2   8   0   18.90    9.40
   2   8   0    5.90    9.20
  -2   8   0    4.00    9.90
   2   8   0    3.30    7.90
  -2   8   0    8.40    7.30
   4   8   0    2.40    9.80
  -4   8   0   -5.70   11.00
  -4   8   0   -5.60    6.00
   4   8   0   -6.80   10.20
  14   0  -1   13.00    6.30
  12   0  -1   25.80    3.90
  12   0  -1   27.30    4.60
  10   0  -1   84.09    6.10
  10   0  -1   75.69    6.80
  10   0  -1   81.79    5.60
   8   0  -1    3.50    1.70
   8   0  -1    2.60    1.20
   8   0  -1    2.70    1.50
   6   0  -1  678.83   31.50
   6   0  -1  680.83   32.10
   6   0  -1  662.23   31.90
   4   0  -1   58.29    3.30
   4   0  -1   55.29    3.10
   2   0  -1   55.29    2.90
   0   0  -1  214.18   10.00
   0   0  -1  204.48   10.00
   0   0   1  186.18    9.90
   0   0   1  215.58    9.90
   0   0  -1  204.68    9.80
   0   0   1  243.28   10.10
   0   0   1  207.68   10.00
   2   0   1   65.99    3.40
   2   0   1   64.39    3.10
  -2   0  -1   63.39    3.40
  -2   0  -1   61.19    3.10
   2   0   1   65.09    3.40
  -2   0  -1   60.69    3.20
  -2   0  -1   66.59    3.40
  -2   0  -1   62.19    3.40
   2   0   1   65.79    3.50
   4   0   1  481.25   23.60
  -4   0  -1  509.05   23.70
   4   0   1  499.85   23.90
   4   0   1  482.05   24.00
   4   0   1  520.25   24.00
  -4   0  -1  519.55   23.90
  -4   0  -1  540.65   24.00
  -4   0  -1  502.95   23.80
  -6   0  -1  446.66   21.10
  -6   0  -1  457.15   21.20
   6   0   1  445.56   21.20
  -6   0  -1  447.96   20.80
   6   0   1  417.56   21.10
   6   0   1  426.46   21.20
   8   0   1 1307.97   63.09
   8   0   1 1315.07   63.19
  -8   0  -1 1344.27   62.99
   8   0   1 1383.86   63.69
   8   0   1 1390.46   63.49
  10   0   1    8.40    3.70
  10   0   1   12.00    3.30
  10   0   1   11.10    3.30
  10   0   1    4.40    3.10
  12   0   1    2.80    4.40
  12   0   1    1.00    4.50
  13  -1  -1  109.39    9.70
  13  -1  -1   92.29    9.00
  13   1  -1   71.59    8.90
  13   1  -1   86.19    9.30
  11  -1  -1    7.30    3.10
  11  -1  -1    6.20    3.90
  11  -1  -1    7.00    2.90
  11  -1  -1    8.10    2.30
  11   1  -1    0.50    3.70
  11   1  -1    6.70    2.90
  11   1  -1    8.20    3.10
  11   1  -1   11.50    2.50
   9  -1  -1   31.70    3.70
   9  -1  -1   30.70    3.20
   9   1  -1   31.00    3.30
   9   1  -1   32.30    3.40
   7  -1  -1  119.99    6.50
   7  -1  -1  109.99    6.10
   7   1  -1  113.99    6.30
   7   1  -1  113.19    7.10
   5  -1  -1  790.42   36.50
   5  -1  -1  781.02   36.40
   5  -1  -1  786.02   36.70
  -5  -1   1  802.22   36.70
   5   1  -1  745.83   36.80
   5   1  -1  785.32   36.70
   3  -1  -1  725.33   33.40
   3  -1  -1  706.13   33.50
  -3  -1   1  727.23   33.20
   3  -1  -1  774.92   33.40
  -3  -1   1  681.13   33.60
  -3  -1   1  684.03   33.60
   3  -1  -1  747.83   33.50
  -3   1   1  739.43   33.40
  -3   1   1  726.43   33.40
  -3   1   1  728.73   33.50
   3   1  -1  736.03   33.60
   3   1  -1  674.93   33.60
   3   1  -1  678.13   33.20
  -1  -1   1 1890.11   90.09
   1  -1  -1 1967.20   90.19
  -1  -1   1 1919.51   90.09
   1   1  -1 1885.71   89.99
   1   1  -1 2016.80   89.99
   1   1  -1 1988.20   90.09
   1   1  -1 1873.71   90.19
  -1   1   1 1995.80   89.99
  -1   1   1 2036.60   90.09
   1  -1   1   76.39    4.70
  -1  -1  -1   89.59    4.60
   1  -1   1   93.29    4.50
  -1  -1  -1   89.89    4.70
   1  -1   1   90.19    4.70
   1  -1   1   99.59    4.70
   1  -1   1   90.99    4.50
  -1  -1  -1   92.39    4.80
  -1  -1  -1   91.19    4.80
  -1  -1  -1   79.19    4.50
   1   1   1   85.19    4.70
  -1   1  -1   86.89    4.70
   1   1   1   87.89    4.50
   1   1   1   87.69    4.60
  -1   1  -1   88.69    4.50
  -1   1  -1   88.99    4.50
  -1   1  -1   89.89    4.70
  -1   1  -1   80.69    4.60
   1   1   1   86.79    4.70
   1   1   1   89.69    4.70
   3  -1   1  345.77   15.60
  -3  -1  -1  360.66   15.80
  -3  -1  -1  291.47   15.80
  -3  -1  -1  336.27   15.90
   3  -1   1  329.07   16.00
   3  -1   1  328.17   15.80
   3  -1   1  303.77   15.80
   3  -1   1  318.67   15.70
  -3  -1  -1  344.57   15.80
  -3   1  -1  335.87   15.80
   3   1   1  321.47   15.80
   3   1   1  331.07   15.80
   3   1   1  309.17   15.70
  -3   1  -1  356.66   15.90
  -3   1  -1  336.57   15.70
   3   1   1  357.66   15.90
   3   1   1  320.77   15.90
  -3   1  -1  305.57   15.70
  -5  -1  -1  255.57   12.30
   5  -1   1  221.48   12.70
  -5  -1  -1  258.77   12.70
   5  -1   1  245.68   12.60
   5  -1   1  252.77   12.70
   5  -1   1  266.27   12.30
  -5  -1  -1  274.07   12.70
   5  -1   1  233.08   12.60
  -5  -1  -1  261.97   12.60
  -5   1  -1  248.48   12.30
   5   1   1  241.88   12.60
   5   1   1  248.28   12.50
   5   1   1  251.77   12.80
  -5   1  -1  270.77   12.70
   5   1   1  264.37   12.70
   5   1   1  255.27   12.60
  -5   1  -1  274.67   12.60
   7  -1   1  279.97   13.40
   7  -1   1  271.97   14.00
   7  -1   1  280.57   14.20
  -7  -1  -1  293.77   13.90
   7  -1   1  271.07   14.00
   7  -1   1  270.37   13.90
  -7  -1  -1  276.27   13.70
   7   1   1  280.37   14.40
  -7   1  -1  277.27   13.80
   7   1   1  273.17   13.60
   7   1   1  266.37   13.80
   7   1   1  273.27   13.90
   7   1   1  264.47   13.90
   9  -1   1    9.80    2.80
   9  -1   1    7.80    2.60
   9  -1   1   10.40    2.60
   9  -1   1   12.20    3.30
  -9  -1  -1   14.40    2.60
   9   1   1   14.90    3.10
   9   1   1    9.70    2.10
  -9   1  -1   10.70    2.60
   9   1   1   12.90    2.90
  11  -1   1   95.09    8.30
  11  -1   1   98.79    8.40
  11  -1   1  126.49    9.40
  11   1   1  103.09    8.80
  11   1   1  116.19    8.90
  11   1   1  107.79    9.10
  13  -1   1    8.90    5.90
  13  -1   1    1.20    6.30
  13   1   1   -4.80    5.70
  13   1   1    3.90    6.50
  12  -2  -1   18.10    3.90
  12  -2  -1   11.20    5.00
  12  -2  -1   21.90    4.40
  12   2  -1   10.10    4.80
  12   2  -1   24.90    4.50
  12   2  -1   16.60    3.70
  10  -2  -1   68.79    6.50
  10  -2  -1   61.99    5.50
  10  -2  -1   66.99    5.40
  10   2  -1   65.79    5.40
  10   2  -1   65.69    5.70
  -8  -2   1    0.10    2.00
   8  -2  -1    2.70    1.70
   8  -2  -1   -2.10    2.00
   8  -2  -1   -1.60    1.90
  -8   2   1   -0.90    3.00
   8   2  -1    0.10    1.60
   8   2  -1    5.10    2.00
  -6  -2   1  432.36   21.50
   6  -2  -1  435.26   21.90
   6  -2  -1  451.45   21.80
  -6  -2   1  463.55   22.10
   6  -2  -1  452.85   21.70
   6  -2  -1  463.35   21.90
  -6  -2   1  453.75   22.00
   6   2  -1  462.65   21.60
  -6   2   1  448.76   21.80
   6   2  -1  441.56   21.60
   6   2  -1  445.56   22.00
   6   2  -1  452.65   22.00
  -6   2   1  458.45   21.60
  -4  -2   1   26.60    2.30
   4  -2  -1   26.60    2.30
  -4  -2   1   25.20    2.30
   4  -2  -1   26.00    1.80
   4  -2  -1   27.50    2.60
   4  -2  -1   23.30    2.40
  -4   2   1   26.70    2.30
  -4   2   1   23.80    2.00
   4   2  -1   22.60    2.30
   4   2  -1   27.30    2.50
  -4   2   1   23.60    2.30
  -4   2   1   24.00    2.20
   4   2  -1   31.10    2.20
   4   2  -1   25.70    2.40
  -4   2   1   29.60    2.70
   4   2  -1   27.60    2.40
  -4   2   1   25.80    2.10
  -2  -2   1   37.20    2.60
   2  -2  -1   38.00    2.40
  -2  -2   1   38.00    2.60
  -2  -2   1   39.50    2.30
  -2   2   1   42.50    3.00
  -2   2   1   35.80    2.80
   2   2  -1   36.90    2.60
   2   2  -1   39.50    3.00
   2   2  -1   43.90    3.00
  -2   2   1   37.60    2.60
  -2   2   1   39.20    2.30
  -2   2   1   38.60    2.60
  -2   2   1   40.40    2.60
  -2   2   1   42.20    2.80
  -2   2   1   42.40    3.00
   2   2  -1   36.90    2.70
   2   2  -1   36.50    2.70
   2   2  -1   37.90    2.30
   0  -2   1  134.29    6.60
   0  -2   1  134.09    6.60
   0  -2  -1  142.29    6.80
   0  -2  -1  113.59    6.60
   0  -2  -1  127.09    6.90
   0  -2   1  133.79    6.50
   0  -2   1  123.69    6.80
   0  -2   1  121.79    6.70
   0  -2   1  127.69    6.60
   0  -2  -1  130.29    6.90
   0   2   1  133.69    6.90
   0   2   1  121.69    6.80
   0   2   1  136.69    6.70
   0   2   1  133.19    6.60
   0   2  -1  130.99    6.50
   0   2   1  132.69    6.80
   0   2  -1  120.79    6.60
   0   2  -1  126.99    6.80
   0   2  -1  124.19    6.80
   0   2  -1  130.89    6.60
   0   2  -1  133.39    6.50
  -2  -2  -1   19.60    2.20
  -2  -2  -1   20.70    2.00
   2  -2   1   20.40    1.90
  -2  -2  -1   19.60    1.80
  -2  -2  -1   18.10    1.90
  -2  -2  -1   19.90    2.20
   2  -2   1   18.20    1.60
   2  -2   1   22.90    2.00
   2  -2   1   20.10    2.20
   2  -2   1   20.80    2.20
  -2   2  -1   22.60    2.10
   2   2   1   20.10    2.30
  -2   2  -1   17.90    1.70
  -2   2  -1   22.80    2.10
  -2   2  -1   19.10    1.50
   2   2   1   20.00    2.00
   2   2   1   20.60    1.70
  -2   2  -1   20.50    1.90
   2   2   1   20.30    1.80
   2   2   1   21.90    2.10
   4  -2   1  323.77   14.90
   4  -2   1  292.57   15.10
  -4  -2  -1  306.87   15.20
   4  -2   1  297.67   15.20
   4  -2   1  304.37   15.00
   4  -2   1  305.87   15.30
  -4  -2  -1  311.87   15.30
  -4  -2  -1  295.77   15.10
  -4  -2  -1  313.37   14.90
  -4  -2  -1  293.87   15.10
   4   2   1  306.57   15.30
   4   2   1  301.57   15.10
  -4   2  -1  327.87   15.10
  -4   2  -1  308.37   15.10
   4   2   1  296.97   15.10
   4   2   1  318.17   15.10
   4   2   1  325.47   15.10
  -4   2  -1  296.17   14.90
  -4   2  -1  289.07   14.90
   6  -2   1  297.87   15.70
   6  -2   1  305.57   15.80
  -6  -2  -1  327.47   15.80
   6  -2   1  334.57   15.40
  -6  -2  -1  325.17   16.00
   6  -2   1  305.47   16.00
  -6  -2  -1  298.87   15.80
   6  -2   1  320.67   16.00
   6   2   1  314.07   15.90
  -6   2  -1  325.27   15.90
  -6   2  -1  306.27   15.80
   6   2   1  307.97   16.70
   6   2   1  311.77   15.80
  -6   2  -1  310.37   15.40
   6   2   1  295.47   15.60
  -6   2  -1  316.87   15.30
   6   2   1  334.87   15.80
   8  -2   1 1111.09   52.49
  -8  -2  -1 1102.39   52.39
   8  -2   1 1112.79   52.59
   8  -2   1 1119.29   51.99
   8  -2   1 1090.59   52.49
  -8  -2  -1 1060.49   52.39
   8  -2   1 1100.59   52.69
   8   2   1 1082.89   52.39
   8   2   1 1095.39   52.79
   8   2   1 1092.99   52.29
   8   2   1 1147.39   52.29
  -8   2  -1 1082.29   52.19
   8   2   1 1207.78   52.49
  10  -2   1    8.90    3.30
  10  -2   1   11.60    2.70
  10  -2   1   11.60    3.70
  10  -2   1    2.00    4.00
 -10  -2  -1   11.50    3.40
  10  -2   1    5.10    3.30
  10   2   1    7.60    2.80
  10   2   1    9.40    4.10
  10   2   1    5.40    3.40
 -10   2  -1    9.40    3.90
  12  -2   1    1.40    5.20
  12  -2   1    7.90    5.10
  12  -2   1    8.30    5.90
  12   2   1   11.70    5.60
  12   2   1   10.40    5.70
  13  -3  -1   65.59   11.40
  13  -3  -1   85.29   11.00
  13   3  -1   54.49    8.90
  13   3  -1   84.89   11.50
  11  -3  -1    4.40    4.00
  11  -3  -1    6.90    4.20
  11  -3  -1   -0.80    3.80
  11   3  -1    6.70    4.30
  11   3  -1    2.80    4.10
   9  -3  -1   27.80    5.50
   9  -3  -1   22.80    3.60
  -9  -3   1   22.90    4.00
   9  -3  -1   24.90    3.50
  -9   3   1   25.30    4.30
   9   3  -1   30.00    4.30
  -9   3   1   31.10    4.30
   9   3  -1   24.30    3.80
  -7  -3   1   61.49    5.20
  -7  -3   1   62.39    5.20
   7  -3  -1   65.79    5.00
   7  -3  -1   56.19    5.20
   7  -3  -1   68.49    5.60
  -7   3   1   63.79    4.80
   7   3  -1   69.79    5.20
  -7   3   1   56.99    4.90
   7   3  -1   65.99    5.00
  -7   3   1   66.29    5.70
   7   3  -1   66.59    5.10
   7   3  -1   62.39    5.20
  -7   3   1   67.99    5.10
   7   3  -1   53.99    5.10
  -7   3   1   60.09    5.80
   5  -3  -1  374.66   18.30
   5  -3  -1  377.26   17.60
  -5  -3   1  377.46   18.50
   5  -3  -1  370.26   18.30
  -5  -3   1  386.66   18.60
   5   3  -1  359.86   18.30
   5   3  -1  369.36   18.50
  -5   3   1  346.27   18.20
  -5   3   1  365.76   18.10
  -5   3   1  358.16   18.60
   5   3  -1  388.76   18.30
   5   3  -1  352.96   18.30
  -5   3   1  370.66   18.70
  -5   3   1  379.26   18.60
  -5   3   1  367.46   18.00
   5   3  -1  360.46   18.40
  -5   3   1  389.86   18.20
   3  -3  -1  250.47   12.60
  -3  -3   1  248.48   12.70
  -3  -3   1  251.17   12.20
   3  -3  -1  258.77   12.40
  -3   3   1  255.97   12.80
  -3   3   1  248.98   12.90
  -3   3   1  249.38   12.60
   3   3  -1  265.37   13.00
   3   3  -1  261.27   12.70
  -3   3   1  256.17   12.60
  -3   3   1  226.18   13.00
  -3   3   1  256.57   12.30
   3   3  -1  258.47   12.80
   3   3  -1  268.07   12.90
   3   3  -1  248.68   12.80
  -3   3   1  258.47   12.80
   3   3  -1  251.37   12.80
  -3   3   1  226.48   13.00
   3   3  -1  241.78   12.90
  -1  -3   1  680.73   31.30
   1  -3  -1  665.13   31.60
   1  -3  -1  699.53   31.80
   1  -3  -1  636.74   31.50
  -1  -3   1  703.53   31.80
   1   3  -1  626.34   31.70
  -1   3   1  671.83   31.50
   1   3  -1  623.24   31.80
   1   3  -1  665.03   31.70
  -1   3   1  665.53   32.00
   1   3  -1  668.43   31.70
   1   3  -1  642.94   31.60
  -1   3   1  659.93   31.80
   1   3  -1  694.13   31.90
   1   3  -1  662.93   32.00
  -1   3   1  711.43   32.00
  -1   3   1  697.13   31.50
  -1   3   1  622.24   31.90
  -1   3   1  652.23   31.60
   1   3  -1  676.23   31.50
  -1  -3  -1   29.30    2.40
   1  -3   1   29.60    2.50
   1  -3   1   30.10    3.20
  -1  -3  -1   26.30    3.30
  -1  -3  -1   30.30    2.80
   1  -3   1   32.90    2.70
  -1  -3  -1   34.30    2.70
  -1  -3  -1   24.60    3.40
   1  -3   1   28.60    3.00
   1  -3   1   31.50    2.40
   1  -3   1   30.90    2.60
   1   3   1   24.80    3.10
  -1   3  -1   27.80    3.10
   1   3   1   30.80    2.80
   1   3   1   31.00    2.90
  -1   3  -1   35.70    2.80
   1   3   1   35.30    3.30
   1   3   1   26.50    2.50
  -1   3  -1   35.30    2.70
  -1   3  -1   26.20    3.00
  -1   3  -1   30.30    2.30
   3  -3   1  115.89    7.00
  -3  -3  -1  117.39    7.10
   3  -3   1  120.49    7.10
   3  -3   1  120.19    6.30
   3  -3   1  113.99    6.00
  -3  -3  -1  103.89    6.40
   3  -3   1  117.39    6.50
  -3  -3  -1  119.49    6.60
  -3  -3  -1  108.09    6.60
  -3  -3  -1  106.89    7.10
   3  -3   1  109.89    6.70
  -3  -3  -1  114.79    5.80
   3   3   1  114.49    6.70
  -3   3  -1  114.99    6.00
   3   3   1  107.99    7.00
  -3   3  -1  118.19    6.60
   3   3   1  120.59    6.40
   3   3   1  122.99    7.00
  -3   3  -1  122.49    6.80
   3   3   1  121.49    6.90
  -3   3  -1  109.09    6.70
  -3   3  -1  112.99    6.30
  -5  -3  -1  126.49    7.90
   5  -3   1  128.49    7.10
   5  -3   1  124.99    7.70
  -5  -3  -1  130.69    7.70
   5  -3   1  131.39    7.50
  -5  -3  -1  118.39    8.50
   5  -3   1  129.89    7.60
  -5  -3  -1  122.99    7.40
   5  -3   1  125.59    7.90
   5   3   1  126.19    7.70
   5   3   1  129.29    7.50
  -5   3  -1  121.89    7.30
  -5   3  -1  124.09    7.60
   5   3   1  129.59    7.50
  -5   3  -1  130.59    7.30
   5   3   1  135.89    7.70
  -5   3  -1  118.89    7.10
   5   3   1  125.39    7.70
  -5   3  -1  130.39    7.50
  -7  -3  -1  203.88   11.00
   7  -3   1  194.88   11.30
  -7  -3  -1  198.08   11.50
   7  -3   1  199.68   11.00
   7  -3   1  196.28   10.30
   7  -3   1  191.98   11.30
   7  -3   1  185.28   10.90
  -7   3  -1  187.18   10.70
   7   3   1  185.08   10.80
  -7   3  -1  192.68   10.30
   7   3   1  194.88   11.00
   7   3   1  208.88   11.00
   7   3   1  193.28   11.10
  -7   3  -1  184.58   10.30
   7   3   1  190.78   10.90
   9  -3   1   11.30    4.20
  -9  -3  -1   12.30    3.80
   9  -3   1   13.80    4.30
   9  -3   1   15.90    3.10
   9  -3   1    7.30    3.50
   9  -3   1    6.40    3.50
   9   3   1   11.10    3.40
   9   3   1    7.40    2.90
  -9   3  -1   19.50    3.80
  -9   3  -1   18.00    4.10
   9   3   1   11.30    3.90
   9   3   1   10.60    3.50
  11  -3   1   72.59    9.10
  11  -3   1   68.89    8.80
  11  -3   1   58.39    7.80
 -11  -3  -1   62.89    8.80
  11  -3   1   59.89    9.00
  11   3   1   81.89    8.10
  11   3   1   60.79    8.80
  12  -4  -1   28.90    6.80
  12  -4  -1    1.70    6.30
  12   4  -1   22.00    5.60
  12   4  -1   -2.80    6.30
 -10  -4   1   29.00    6.00
  10  -4  -1   56.39    7.30
  10  -4  -1   45.30    6.90
 -10   4   1   39.60    6.30
  10   4  -1   34.50    6.10
 -10   4   1   36.80    5.20
  10   4  -1   36.10    5.50
  10   4  -1   34.60    5.20
   8  -4  -1   -0.10    2.90
   8  -4  -1   -2.50    2.80
   8  -4  -1   -3.50    3.10
  -8  -4   1   -0.80    3.00
   8   4  -1   -1.50    2.70
  -8   4   1    5.20    3.30
  -8   4   1   -1.30    3.50
   8   4  -1    0.50    3.30
   8   4  -1    4.60    3.00
  -8   4   1    3.70    3.70
  -8   4   1    0.80    5.30
   8   4  -1   -1.60    3.00
   8   4  -1   -0.80    2.90
   6  -4  -1  150.68    9.40
   6  -4  -1  161.88    9.50
  -6  -4   1  164.78    9.60
  -6  -4   1  174.38   10.00
  -6   4   1  156.58   10.20
  -6   4   1  150.98    9.50
   6   4  -1  162.38    9.70
  -6   4   1  156.78    9.00
  -6   4   1  169.88    9.30
   6   4  -1  153.58    9.70
  -6   4   1  186.78   11.90
   6   4  -1  149.59    9.60
   6   4  -1  168.88   10.00
  -6   4   1  156.18    9.20
  -4  -4   1   15.10    2.00
  -4  -4   1   13.40    2.30
  -4  -4   1   12.50    2.40
   4  -4  -1   13.40    2.70
   4  -4  -1   12.80    1.90
  -4   4   1   16.90    3.30
   4   4  -1   14.80    2.90
  -4   4   1   13.50    2.40
  -4   4   1   10.50    2.20
   4   4  -1   13.80    2.80
   4   4  -1   14.80    3.00
  -4   4   1   14.20    2.40
   4   4  -1   16.20    2.70
   4   4  -1   17.40    3.40
   4   4  -1   11.40    2.50
  -4   4   1   13.30    2.90
  -4   4   1    9.60    2.70
  -4   4   1   16.50    3.10
  -4   4   1   15.90    2.10
   4   4  -1   14.20    2.60
   2  -4  -1    4.40    1.80
   2  -4  -1    8.50    1.90
  -2  -4   1    4.00    1.60
  -2  -4   1    6.80    2.00
  -2  -4   1    6.20    1.40
  -2   4   1    8.30    2.00
  -2   4   1    5.30    2.70
  -2   4   1    5.00    1.70
  -2   4   1    6.20    1.80
   2   4  -1    6.90    1.90
  -2   4   1    6.40    2.50
   2   4  -1    4.00    2.60
   2   4  -1    6.70    1.60
   2   4  -1    4.90    2.10
   2   4  -1    5.30    2.30
   2   4  -1    3.50    2.30
  -2   4   1    5.30    2.10
   2   4  -1    7.40    1.90
  -2   4   1    6.40    1.50
  -2   4   1    4.60    2.30
   2   4  -1    5.70    1.80
   0  -4  -1   44.10    3.40
   0  -4   1   48.60    3.70
   0  -4   1   43.80    3.30
   0  -4  -1   45.10    3.70
   0  -4   1   40.10    3.80
   0   4  -1   39.50    5.00
   0   4  -1   49.10    3.70
   0   4   1   45.50    4.80
   0   4  -1   38.20    4.80
   0   4  -1   44.90    4.10
   0   4   1   48.90    4.70
   0   4  -1   43.50    3.50
   0   4   1   41.20    3.50
   0   4   1   44.40    4.50
   0   4   1   38.50    3.80
   0   4   1   45.60    4.00
   0   4  -1   41.10    4.50
   0   4  -1   46.40    4.00
   0   4   1   44.80    3.80
   0   4  -1   34.70    4.80
   0   4   1   46.40    4.60
   2  -4   1    7.10    1.60
  -2  -4  -1    2.80    2.80
   2  -4   1    7.40    2.20
   2  -4   1    6.80    1.90
  -2  -4  -1    6.40    1.60
   2  -4   1    6.60    1.80
  -2  -4  -1    5.60    1.40
   2   4   1    4.50    2.20
  -2   4  -1    8.40    1.90
  -2   4  -1    4.80    1.90
  -2   4  -1    7.40    2.30
   2   4   1    4.90    3.00
  -2   4  -1    4.20    2.80
   2   4   1    4.40    2.70
  -2   4  -1    8.00    2.00
  -2   4  -1    6.90    2.60
   2   4   1    3.70    1.80
   2   4   1    4.50    2.20
   4  -4   1   97.69    6.20
  -4  -4  -1   88.79    5.00
  -4  -4  -1   95.49    6.50
   4  -4   1   80.39    6.80
  -4  -4  -1  103.09    7.40
  -4  -4  -1   95.09    6.10
   4  -4   1  100.09    7.10
   4  -4   1   95.09    5.80
  -4  -4  -1   95.39    7.30
   4  -4   1   85.69    6.40
  -4   4  -1   90.79    5.20
  -4   4  -1   94.69    6.00
  -4   4  -1   88.29    6.50
   4   4   1   91.89    6.20
  -4   4  -1   91.09    6.20
   4   4   1   86.49    6.80
  -4   4  -1   81.39    6.40
   4   4   1   95.49    6.80
   4   4   1   92.69    6.60
  -4   4  -1   85.89    7.00
  -6  -4  -1  115.89    9.60
   6  -4   1  131.29    8.80
  -6  -4  -1  126.89    8.60
   6  -4   1  144.39    9.60
   6  -4   1  139.69    9.20
   6  -4   1  141.69    8.00
  -6  -4  -1  137.39    8.60
   6  -4   1  128.89    8.50
   6   4   1  133.79    8.80
  -6   4  -1  137.19    8.90
  -6   4  -1  133.49    9.10
   6   4   1  140.89    8.30
  -6   4  -1  126.99    8.20
   6   4   1  131.29    8.90
   6   4   1  139.29    8.50
   6   4   1  143.79    9.30
   8  -4   1  649.74   32.30
  -8  -4  -1  666.23   32.80
   8  -4   1  665.33   32.90
   8  -4   1  669.53   32.80
   8  -4   1  637.24   31.80
   8  -4   1  704.83   33.10
  -8  -4  -1  661.43   32.70
  -8  -4  -1  599.44   32.60
  -8   4  -1  638.14   32.40
  -8   4  -1  638.64   31.70
   8   4   1  661.23   32.50
   8   4   1  662.03   32.30
   8   4   1  667.63   32.30
   8   4   1  633.24   32.40
  -8   4  -1  629.74   32.40
  -8   4  -1  636.34   32.10
  -8   4  -1  655.23   31.50
  10  -4   1   -5.80    4.40
 -10  -4  -1    7.50    5.60
  10  -4   1    3.70    5.90
  10  -4   1    2.60    6.40
  10  -4   1   -4.40    4.60
  10  -4   1    3.80    4.50
  10   4   1    1.90    5.80
  10   4   1    6.90    5.20
  10   4   1   12.10    4.50
  10   4   1   12.80    4.60
  11  -5  -1   -7.10    6.50
  11  -5  -1   -3.30    6.90
  11   5  -1   -6.40    6.90
  11   5  -1    3.10    7.00
  11   5  -1   -6.10    5.30
  11   5  -1  -10.10    6.60
   9  -5  -1   11.70    5.30
  -9  -5   1   15.60    5.40
   9  -5  -1   18.20    5.10
   9   5  -1   23.60    6.10
   9   5  -1   18.20    5.50
   9   5  -1   24.80    6.10
  -9   5   1   16.20    8.10
  -9   5   1   17.00    6.70
   9   5  -1   14.20    5.70
   9   5  -1   16.60    4.80
   9   5  -1   20.00    5.50
  -7  -5   1   28.70    4.60
   7  -5  -1   26.00    4.60
   7  -5  -1   36.40    4.80
  -7  -5   1   27.90    5.50
   7   5  -1   44.00    7.40
   7   5  -1   21.20    5.00
  -7   5   1   24.90    4.00
  -7   5   1   32.40    6.60
  -7   5   1   39.50    6.20
  -7   5   1   26.10    5.50
   7   5  -1   31.50    5.20
  -7   5   1   41.70    7.00
   7   5  -1   26.80    5.30
   7   5  -1   24.70    4.80
  -7   5   1   23.80    5.00
  -7   5   1   25.10    6.10
   7   5  -1   29.60    5.20
   7   5  -1   25.40    5.10
  -5  -5   1  151.78    8.50
   5  -5  -1  156.78    8.90
   5  -5  -1  159.08    9.80
  -5  -5   1  151.28    9.80
   5   5  -1  166.08   10.40
   5   5  -1  166.38   10.50
   5   5  -1  163.58   10.90
   5   5  -1  168.98   10.00
  -5   5   1  168.18    9.80
   5   5  -1  178.08   10.80
  -5   5   1  153.98   10.30
  -5   5   1  163.38   11.10
   5   5  -1  143.79   10.50
  -5   5   1  151.28    9.70
  -5   5   1  147.69   11.20
   5   5  -1  162.68   10.30
  -3  -5   1   60.39    5.70
   3  -5  -1   77.79    6.30
   3  -5  -1   65.39    5.70
  -3  -5   1   70.79    5.60
   3  -5  -1   60.89    4.90
   3   5  -1   64.79    5.90
  -3   5   1   60.69    6.60
   3   5  -1   75.79    5.90
   3   5  -1   66.39    5.40
  -3   5   1   63.79    5.80
  -3   5   1   68.19    6.40
   3   5  -1   65.09    6.80
  -3   5   1   65.69    4.80
   3   5  -1   53.79    6.30
  -3   5   1   73.99    6.90
  -3   5   1   62.39    6.80
   3   5  -1   56.09    5.60
   3   5  -1   70.49    6.50
  -3   5   1   65.09    5.50
   3   5  -1   49.00    6.20
   1  -5  -1  227.78   12.10
  -1  -5   1  233.18   12.50
  -1  -5   1  237.68   12.00
   1  -5  -1  221.08   12.40
  -1  -5   1  234.38   12.70
   1   5  -1  235.78   12.40
   1   5  -1  245.38   13.30
  -1   5   1  242.48   12.70
  -1   5   1  226.78   13.40
   1   5  -1  233.58   12.80
  -1   5   1  253.67   13.40
  -1   5   1  215.48   12.70
   1   5  -1  242.68   13.50
  -1   5   1  233.28   13.50
   1   5  -1  218.38   13.30
   1   5  -1  215.58   13.30
   1   5  -1  216.88   12.40
   1   5  -1  226.78   12.90
  -1   5   1  228.78   12.30
  -1  -5  -1    9.60    3.00
   1  -5   1   10.60    2.40
  -1  -5  -1   12.40    2.20
   1  -5   1   10.10    2.60
  -1  -5  -1   12.80    2.30
   1  -5   1   12.30    2.50
  -1   5  -1   10.30    3.40
  -1   5  -1   12.00    2.60
   1   5   1   11.80    3.20
   1   5   1   13.80    3.80
  -1   5  -1   15.40    2.60
   1   5   1    6.90    2.70
  -1   5  -1   12.50    3.70
   1   5   1   18.80    3.80
   1   5   1   11.10    3.40
  -1   5  -1   14.90    4.00
   1   5   1    9.20    2.20
  -1   5  -1   10.30    2.60
  -1   5  -1    8.30    2.90
  -1   5  -1    7.00    3.30
   1   5   1   10.70    3.60
  -3  -5  -1   34.10    4.30
   3  -5   1   26.90    3.70
  -3  -5  -1   33.20    3.50
   3  -5   1   37.30    4.60
   3   5   1   35.40    5.60
  -3   5  -1   35.60    5.60
  -3   5  -1   30.60    5.50
  -3   5  -1   31.90    4.50
  -3   5  -1   38.80    6.20
   3   5   1   44.80    6.10
   3   5   1   31.70    4.30
  -3   5  -1   28.00    4.30
  -3   5  -1   30.70    5.10
   3   5   1   31.30    5.20
  -3   5  -1   34.30    3.60
  -3   5  -1   31.00    4.80
   3   5   1   45.00    5.80
  -5  -5  -1   50.19    8.20
  -5  -5  -1   56.89    5.70
   5  -5   1   56.89    9.10
   5  -5   1   49.50    6.00
  -5  -5  -1   47.70    6.10
   5  -5   1   44.20    4.70
  -5   5  -1   41.80    5.30
  -5   5  -1   51.59    5.90
  -5   5  -1   34.20    4.50
  -5   5  -1   57.39    8.10
   5   5   1   44.70    6.90
  -5   5  -1   49.40    6.80
   5   5   1   39.30    6.60
  -5   5  -1   47.10    3.80
   5   5   1   41.90    6.50
   5   5   1   35.10    7.50
  -5   5  -1   35.00    7.60
  -7  -5  -1  114.49   12.10
  -7  -5  -1  124.39    9.80
   7  -5   1  112.99   10.70
   7  -5   1  106.09    8.50
   7  -5   1  110.19    9.70
  -7  -5  -1  109.99    9.30
   7  -5   1  115.59    9.30
   7   5   1  108.39    9.90
   7   5   1  127.39   10.30
  -7   5  -1  113.09    8.90
  -7   5  -1  122.29   11.60
   7   5   1  134.09   10.20
  -7   5  -1  115.79   10.30
  -7   5  -1  124.69   11.60
  -7   5  -1  108.89    8.90
  -7   5  -1  128.29   10.50
  -7   5  -1  125.89   10.50
   7   5   1  113.19    8.90
   9  -5   1   -1.80    5.80
   9  -5   1    0.30    6.50
   9  -5   1    8.30    5.00
   9   5   1   -7.10    5.90
   9   5   1    3.80    5.90
  -9   5  -1   -1.60    4.20
   9   5   1    9.10    6.00
  -9   5  -1    8.40    7.30
   9   5   1    8.50    4.50
  10  -6  -1   -8.80   11.20
   8  -6  -1    9.50    5.60
  -8  -6   1    5.40    6.00
   8   6  -1    0.00    6.30
   8   6  -1   -0.30    4.80
   8   6  -1    1.20    6.40
  -8   6   1    0.10    5.00
   8   6  -1   -1.10    8.80
  -8   6   1   -7.70    5.20
  -8   6   1    7.40    7.70
   8   6  -1    4.30    6.30
  -6  -6   1   39.40    4.90
   6  -6  -1   45.40    7.50
  -6  -6   1   65.69    7.70
   6  -6  -1   49.60    5.70
   6   6  -1   41.50    6.70
  -6   6   1   39.80    7.10
   6   6  -1   46.90    6.60
   6   6  -1   42.00    7.00
   6   6  -1   41.70    7.20
   6   6  -1   50.89    7.30
  -6   6   1   54.09   10.00
   6   6  -1   58.19    8.40
   4  -6  -1   15.40    4.00
  -4  -6   1   12.90    3.10
  -4  -6   1   16.00    4.60
  -4  -6   1   17.50    3.80
   4  -6  -1   11.80    3.30
   4  -6  -1    9.60    3.70
   4   6  -1   16.20    4.40
   4   6  -1   11.20    5.10
  -4   6   1   17.60    4.30
  -4   6   1   15.90    5.40
   4   6  -1   19.60    5.10
   4   6  -1   15.20    4.70
   4   6  -1   10.60    5.10
  -4   6   1   19.30    5.10
  -4   6   1   13.10    3.00
  -4   6   1   25.30    5.80
  -4   6   1    4.40    5.20
  -4   6   1   15.50    5.60
   4   6  -1    6.50    4.60
   4   6  -1   17.90    4.00
   2  -6  -1    1.50    2.60
  -2  -6   1    3.20    2.70
  -2  -6   1    1.70    3.50
   2  -6  -1   -1.10    3.30
   2  -6  -1    3.10    2.80
   2   6  -1   -1.10    4.20
   2   6  -1   -2.70    4.60
   2   6  -1    1.30    3.60
  -2   6   1    6.80    3.90
  -2   6   1   -4.80    4.50
  -2   6   1    6.10    4.70
  -2   6   1   -4.10    2.50
   2   6  -1   -1.90    3.40
  -2   6   1   -1.90    4.40
  -2   6   1   -0.30    3.50
   2   6  -1    0.10    4.10
   2   6  -1   -2.30    4.10
   2   6  -1    2.90    3.90
  -2   6   1    2.20    5.00
   2   6  -1    6.80    5.30
   0  -6  -1   13.80    3.90
   0  -6   1   20.20    3.80
   0  -6  -1   16.20    3.30
   0   6  -1    6.70    4.70
   0   6   1   15.70    4.80
   0   6  -1    7.10    4.90
   0   6   1    6.50    5.00
   0   6  -1   16.60    6.50
   0   6   1   14.70    4.00
   0   6  -1   12.80    3.10
   0   6   1   15.30    3.40
   0   6   1   14.00    4.20
   0   6   1   20.50    4.90
   0   6  -1   10.20    3.70
   0   6  -1    8.40    3.70
   2  -6   1    1.00    3.30
  -2  -6  -1    0.30    3.90
   2  -6   1    7.30    3.20
  -2  -6  -1   -1.50    2.70
   2  -6   1    4.20    2.60
  -2  -6  -1    6.40    2.70
  -2   6  -1    4.00    4.30
   2   6   1    6.00    8.60
   2   6   1   -3.80    3.80
  -2   6  -1    5.40    4.00
  -2   6  -1    2.50    3.10
   2   6   1    5.80    4.60
  -2   6  -1    4.00    2.50
  -2   6  -1    2.60    3.30
  -2   6  -1   -1.90    4.50
   2   6   1    1.40    3.60
   2   6   1    3.20    5.40
   2   6   1    6.60    3.00
  -2   6  -1    3.80    5.30
   4  -6   1   15.70    4.00
   4  -6   1   22.60    4.40
  -4  -6  -1   21.90    4.30
  -4  -6  -1   19.90    5.40
  -4  -6  -1   29.80    3.60
  -4   6  -1   21.90    5.10
   4   6   1   24.60    5.70
  -4   6  -1   19.80    5.60
   4   6   1   20.50    5.10
   4   6   1   19.80    5.60
  -4   6  -1   32.40    6.30
  -4   6  -1   23.10    4.70
   4   6   1   19.30    4.10
   4   6   1   33.20    6.50
  -4   6  -1   14.30    6.10
  -4   6  -1   20.70    3.30
  -4   6  -1   19.10    5.20
   4   6   1   20.80    5.30
  -4   6  -1    9.30    4.20
   6  -6   1   40.90    6.00
   6   6   1   37.60    7.00
  -6   6  -1   43.40    6.40
   6   6   1   36.00    6.70
  -6   6  -1   49.20    8.00
   6   6   1   49.70    8.90
  -6   6  -1   50.49    8.20
   6   6   1   48.90    7.10
   8  -6   1  326.97   20.00
  -8  -6  -1  340.87   19.60
   8  -6   1  338.77   20.40
   8   6   1  365.76   20.80
   8   6   1  312.77   19.50
   8   6   1  299.57   20.40
  -8   6  -1  295.87   18.80
   8   6   1  333.17   20.70
  -7  -7   1   13.70    7.20
   7  -7  -1   -0.80    7.10
   7   7  -1   -8.90    8.40
   7   7  -1   18.10    8.50
   7   7  -1   -2.80    5.50
  -7   7   1   18.80    6.80
   7   7  -1   11.80    7.60
  -7   7   1   -4.80    9.40
   5  -7  -1   67.09    9.20
   5  -7  -1   55.49    8.90
  -5  -7   1   57.89    9.90
  -5  -7   1   75.79    7.50
  -5   7   1   68.79   13.50
   5   7  -1  101.79   15.30
  -5   7   1   88.79   13.30
  -5   7   1   60.29    9.80
   5   7  -1   70.19    8.80
   5   7  -1   76.39   12.10
   5   7  -1   66.79   11.60
  -5   7   1   52.29    7.50
   5   7  -1   51.99    8.70
  -3  -7   1   10.40    4.60
   3  -7  -1   11.10    5.10
  -3  -7   1   13.20    4.80
   3   7  -1   16.20    7.50
  -3   7   1    8.00    5.30
  -3   7   1   11.00   13.80
   3   7  -1   18.40    4.80
   3   7  -1   21.50    6.80
  -3   7   1   10.00    7.00
   3   7  -1   14.20    6.70
   3   7  -1   13.60    5.70
  -3   7   1   17.50    4.20
  -3   7   1   13.90    7.10
   3   7  -1   15.60    7.90
  -1  -7   1   97.39    9.10
  -1  -7   1   93.39    8.90
   1  -7  -1   88.59   10.00
   1  -7  -1  121.79    9.00
  -1  -7   1  118.49   10.90
   1   7  -1  134.49   14.30
  -1   7   1   91.19   12.50
   1   7  -1  103.59   10.20
   1   7  -1   97.09    8.60
   1   7  -1  111.69   12.10
   1   7  -1  108.79   11.90
  -1   7   1   96.49    8.60
  -1   7   1  108.19    9.90
  -1   7   1   89.29   11.90
   1   7  -1   91.69   12.00
  -1   7   1   95.49   11.50
  -1  -7  -1    1.70    4.30
   1  -7   1    1.70    5.00
  -1  -7  -1    2.70    4.30
  -1   7  -1    7.20    6.50
  -1   7  -1   13.50    6.90
   1   7   1    5.00    5.50
   1   7   1    6.20    4.20
  -1   7  -1    6.20    5.20
   1   7   1    4.80    6.50
   1   7   1   -4.40    6.90
   1   7   1    3.60    7.60
   1   7   1    2.80    6.20
  -1   7  -1    2.80    6.40
   3  -7   1   15.50    4.80
  -3  -7  -1   11.50    4.90
  -3  -7  -1    3.10    4.40
   3  -7   1    2.10    4.50
  -3   7  -1   10.90    7.40
   3   7   1    8.50    6.20
   3   7   1   23.20    8.60
  -3   7  -1    9.00    5.60
   3   7   1    3.30    6.60
  -3   7  -1  -17.40   11.60
   3   7   1    4.00    4.20
   3   7   1    0.80    6.20
  -3   7  -1    3.10    7.50
   5  -7   1    9.50    6.00
  -5  -7  -1   20.70    6.10
   5   7   1   13.60    5.80
  -5   7  -1   25.30    8.80
   5   7   1   11.20    7.60
   5   7   1   39.80   11.00
   5   7   1   25.60    8.10
  -5   7  -1   11.60    9.60
  -5   7  -1   18.80    6.40
   5   7   1    7.50    7.50
   7  -7   1   81.49   12.10
  -7  -7  -1   60.49    8.90
   7   7   1   76.59   11.80
   7   7   1   65.69   11.60
  -7   7  -1   58.89   12.40
   7   7   1   39.50   10.30
   7   7   1   66.09   10.70
  -4  -8   1   -1.20    7.30
  -4   8   1   13.20    6.10
   4   8  -1   12.30    6.80
   4   8  -1    4.40    9.30
  -4   8   1   26.20   10.70
  -4   8   1   17.30    8.60
   4   8  -1    0.00   10.20
   2  -8  -1    6.50    6.00
  -2  -8   1    6.20    7.20
   2   8  -1    1.00    9.10
   2   8  -1  -13.10    7.60
  -2   8   1    5.50    5.60
  -2   8   1   20.00    9.80
   2   8  -1   -1.90    9.20
   2   8  -1    5.80    5.50
  -2   8   1   -7.70    7.10
  -2   8   1   -0.40   10.20
   0  -8   1    2.80    6.30
   0   8   1    8.40    6.30
   0   8  -1  -10.30    7.00
   0   8  -1   23.60    9.70
   0   8  -1   -1.50    9.10
   0   8   1    4.80    9.40
   0   8   1    8.50    9.10
   0   8  -1    2.90    5.20
   0   8   1   -7.80    6.80
  -2  -8  -1   15.70    6.60
  -2   8  -1   -6.70   10.40
   2   8   1   -5.40    8.30
   2   8   1   -0.50    9.00
  -2   8  -1   -9.40   10.00
  -2   8  -1   -4.30    6.80
  -2   8  -1   -1.10    5.90
   2   8   1    7.90    9.50
   2   8   1    0.20    6.70
  14   0  -2   18.40    5.90
  12   0  -2   25.30    4.30
  10   0  -2   18.20    3.00
  10   0  -2   22.60    3.70
   8   0  -2    7.90    1.70
   8   0  -2    7.40    1.50
   8   0  -2    5.90    2.10
   6   0  -2  437.16   20.70
   6   0  -2  416.16   20.30
   6   0  -2  425.46   20.30
   4   0  -2    5.10    0.90
   4   0  -2    4.20    0.90
   2   0  -2  605.24   26.60
  -2   0   2  533.95   26.70
   2   0  -2  580.04   26.60
   2   0  -2  573.34   26.70
   0   0   2  122.79    6.20
   0   0   2  120.39    6.10
   0   0  -2  132.39    6.10
   0   0  -2  134.09    6.20
   0   0  -2  108.49    6.10
   0   0   2  123.59    6.00
   0   0   2  123.49    6.10
   0   0  -2  116.49    6.00
  -2   0  -2 2238.58  102.79
   2   0   2 2214.08  102.79
  -2   0  -2 2427.66  103.19
   2   0   2 2229.28  103.09
   2   0   2 2024.30  103.09
  -2   0  -2 2356.46  103.09
   2   0   2 2198.68  103.09
  -2   0  -2 2157.78  103.09
   4   0   2   15.10    2.10
  -4   0  -2   15.70    1.50
  -4   0  -2   17.80    1.80
   4   0   2   15.90    2.20
   4   0   2   17.10    2.10
  -4   0  -2   14.80    2.00
  -4   0  -2   16.60    2.10
   6   0   2   44.50    3.90
   6   0   2   51.39    4.10
  -6   0  -2   50.79    3.90
   6   0   2   48.60    4.00
   6   0   2   40.20    3.90
  -6   0  -2   45.80    3.40
  -6   0  -2   51.79    3.10
   8   0   2   -3.60    2.00
  -8   0  -2    2.20    2.60
   8   0   2   -3.30    1.90
   8   0   2    0.50    2.20
   8   0   2   -0.70    2.20
 -10   0  -2   42.10    6.90
  10   0   2   36.00    4.80
  10   0   2   26.70    4.70
  10   0   2   29.40    4.50
  10   0   2   26.80    5.50
  10   0   2   35.20    5.90
  12   0   2   38.60    6.50
  12   0   2   48.20    8.10
  12   0   2   28.90    6.30
  13  -1  -2   34.00    5.70
  13  -1  -2   28.40    4.50
  13   1  -2   25.30    5.40
  13   1  -2   26.80    4.00
  11  -1  -2    3.90    2.30
  11  -1  -2   -0.20    2.80
  11   1  -2    4.10    3.60
  11   1  -2    3.00    2.30
   9  -1  -2  266.07   13.80
   9  -1  -2  278.97   14.30
   9   1  -2  271.97   14.30
   9   1  -2  256.87   13.70
   7  -1  -2  155.18    8.20
   7   1  -2  155.68    8.50
   7   1  -2  150.18    8.20
   5  -1  -2  418.46   20.40
  -5  -1   2  437.56   20.80
   5   1  -2  442.16   20.70
   5   1  -2  443.76   20.70
   5   1  -2  406.66   20.10
  -5   1   2  431.66   20.50
   3  -1  -2   70.79    3.50
  -3  -1   2   64.89    3.40
   3  -1  -2   70.09    3.70
  -3  -1   2   61.49    3.70
   3  -1  -2   63.49    3.60
   3   1  -2   65.89    3.50
   3   1  -2   68.89    3.70
  -3   1   2   62.69    3.50
   3   1  -2   68.29    3.80
  -3   1   2   70.39    3.60
  -1  -1   2  177.88    8.50
  -1  -1   2  186.58    8.50
   1  -1  -2  164.48    8.70
   1  -1  -2  189.18    8.60
   1  -1  -2  172.28    8.70
  -1  -1   2  167.58    8.60
  -1   1   2  168.98    8.60
   1   1  -2  153.88    8.60
   1   1  -2  153.08    8.50
  -1   1   2  185.08    8.50
  -1   1   2  174.78    8.60
   1   1  -2  178.38    8.50
  -1   1   2  181.38    8.40
   1   1  -2  180.08    8.50
   1  -1   2 1185.08   57.89
  -1  -1  -2 1291.77   57.89
  -1  -1  -2 1298.47   57.99
  -1  -1  -2 1242.28   57.89
   1  -1   2 1191.98   57.69
  -1  -1  -2 1328.57   58.09
   1  -1   2 1127.29   57.99
   1  -1   2 1259.87   57.99
   1  -1   2 1286.57   57.69
   1   1   2 1257.27   57.99
   1   1   2 1285.17   57.89
   1   1   2 1180.08   57.99
  -1   1  -2 1220.68   57.89
  -1   1  -2 1202.28   57.69
  -1   1  -2 1311.17   57.89
  -1   1  -2 1212.38   57.69
   1   1   2 1250.57   57.59
  -1   1  -2 1310.87   57.99
   3  -1   2  435.36   19.60
  -3  -1  -2  405.86   19.90
   3  -1   2  437.46   19.80
   3  -1   2  401.56   19.90
  -3  -1  -2  441.36   20.10
  -3  -1  -2  431.56   20.00
   3  -1   2  386.36   20.00
  -3  -1  -2  430.76   19.90
   3  -1   2  393.86   19.90
   3   1   2  396.46   19.90
   3   1   2  409.26   19.90
   3   1   2  410.56   19.80
   3   1   2  420.86   20.00
   3   1   2  409.66   19.80
  -3   1  -2  394.36   19.90
  -3   1  -2  419.76   19.60
  -3   1  -2  403.06   19.80
  -3   1  -2  437.66   20.00
   5  -1   2  103.19    6.20
  -5  -1  -2  110.29    6.00
   5  -1   2  111.79    6.30
  -5  -1  -2  114.49    6.50
   5  -1   2  109.19    5.70
   5  -1   2  103.99    6.10
   5  -1   2   99.89    6.40
  -5  -1  -2  104.59    6.00
  -5  -1  -2  109.79    6.40
  -5   1  -2  111.19    6.00
   5   1   2  110.29    6.30
   5   1   2  115.39    6.30
   5   1   2  114.19    6.30
  -5   1  -2  109.49    6.20
   5   1   2  103.19    5.90
   5   1   2   98.09    6.20
  -5   1  -2  111.59    6.30
   7  -1   2  687.23   30.90
   7  -1   2  627.04   30.80
  -7  -1  -2  643.54   30.50
   7  -1   2  642.74   31.10
  -7  -1  -2  624.34   30.80
  -7  -1  -2  652.63   30.90
   7  -1   2  626.04   30.80
   7  -1   2  659.13   30.10
  -7   1  -2  595.64   30.60
  -7   1  -2  624.54   30.30
   7   1   2  660.03   31.10
   7   1   2  627.44   30.30
  -7   1  -2  624.14   30.70
   7   1   2  652.03   30.80
   7   1   2  622.64   30.80
   7   1   2  646.64   30.70
   9  -1   2    1.60    3.20
   9  -1   2    7.60    1.80
   9  -1   2    5.60    3.30
  -9  -1  -2    4.70    2.40
   9  -1   2    5.50    2.70
   9  -1   2    5.00    3.00
   9   1   2    7.10    2.90
   9   1   2    6.90    3.40
   9   1   2    4.90    2.70
  -9   1  -2   -1.80    3.50
   9   1   2   -0.70    3.30
  11  -1   2   38.00    6.90
 -11  -1  -2   40.10    6.90
  11  -1   2   56.89    7.30
 -11  -1  -2   56.99    6.10
  11  -1   2   38.70    6.20
  11   1   2   40.50    7.00
  11   1   2   42.90    7.70
 -11   1  -2   53.79    8.90
  11   1   2   51.09    7.10
  14  -2  -2    2.90    7.40
  14   2  -2   10.20    6.20
  12  -2  -2   20.90    4.10
  12  -2  -2   30.10    4.30
  12  -2  -2   26.10    4.90
  12   2  -2   15.20    4.80
  12   2  -2   25.40    4.10
  10  -2  -2   16.50    3.40
  10  -2  -2   13.20    2.90
  10   2  -2   13.80    3.70
  10   2  -2   13.70    2.80
   8  -2  -2    3.90    1.80
   8  -2  -2    3.80    2.10
   8   2  -2    2.70    2.00
   8   2  -2    2.70    1.60
   6  -2  -2  297.57   14.70
  -6  -2   2  296.27   15.10
   6  -2  -2  301.17   14.60
  -6   2   2  295.77   14.70
  -6   2   2  309.07   14.70
   6   2  -2  295.67   14.40
   6   2  -2  295.27   15.00
  -6   2   2  294.37   14.50
   6   2  -2  292.57   15.00
   4  -2  -2    1.90    0.90
  -4  -2   2    1.00    0.90
  -4  -2   2    1.30    1.00
   4  -2  -2    1.60    1.00
   4  -2  -2    0.70    1.00
   4  -2  -2    0.70    0.70
  -4  -2   2    0.70    0.60
   4   2  -2    1.90    0.90
  -4   2   2    0.50    0.90
   4   2  -2    0.10    1.30
   4   2  -2    2.50    0.90
  -4   2   2    0.60    1.30
  -4   2   2    2.30    1.10
  -4   2   2    0.20    1.10
  -4   2   2    2.00    0.80
  -4   2   2    1.40    1.70
  -4   2   2    0.50    0.70
   4   2  -2    1.20    1.00
   4   2  -2    0.70    0.60
  -2  -2   2  320.27   16.30
  -2  -2   2  332.47   16.10
   2  -2  -2  334.77   16.60
   2  -2  -2  321.77   16.20
   2  -2  -2  364.46   16.50
  -2  -2   2  314.57   16.30
   2  -2  -2  362.46   16.30
  -2  -2   2  363.56   16.60
   2  -2  -2  354.76   16.60
  -2  -2   2  319.77   16.40
   2   2  -2  360.06   16.30
  -2   2   2  346.47   16.30
   2   2  -2  305.97   16.30
  -2   2   2  329.07   16.20
  -2   2   2  366.26   16.60
   2   2  -2  334.07   16.10
   2   2  -2  313.97   16.40
   2   2  -2  345.77   16.20
  -2   2   2  351.66   16.40
   2   2  -2  349.67   16.60
   0  -2  -2   89.89    5.20
   0  -2   2   88.99    4.90
   0  -2  -2   88.69    4.90
   0  -2  -2   87.39    5.20
   0  -2   2   86.29    5.10
   0  -2  -2   82.49    4.50
   0  -2   2   91.89    4.70
   0  -2  -2   95.19    5.10
   0  -2   2   76.19    5.10
   0  -2   2   89.89    4.80
   0   2  -2   85.79    4.70
   0   2  -2   91.49    4.80
   0   2  -2   95.39    5.00
   0   2   2   90.89    5.20
   0   2  -2   78.49    4.80
   0   2   2   92.49    5.20
   0   2  -2   97.19    5.10
   0   2  -2   89.79    4.90
   0   2   2   85.79    4.90
   0   2   2   89.29    4.90
   0   2   2   93.89    5.00
  -2  -2  -2 1349.36   63.69
   2  -2   2 1400.66   63.39
  -2  -2  -2 1359.36   63.79
  -2  -2  -2 1454.15   63.99
   2  -2   2 1330.07   63.79
   2  -2   2 1402.26   63.39
   2  -2   2 1389.46   63.69
   2  -2   2 1360.06   63.79
  -2  -2  -2 1317.47   63.69
  -2  -2  -2 1300.77   63.39
   2   2   2 1446.96   63.39
   2   2   2 1239.58   63.49
  -2   2  -2 1511.95   63.69
  -2   2  -2 1296.87   63.39
   2   2   2 1309.07   63.69
  -2   2  -2 1282.67   63.29
   2   2   2 1356.56   63.69
   2   2   2 1393.26   63.89
  -2   2  -2 1426.56   63.39
  -2   2  -2 1367.66   63.59
  -4  -2  -2   12.90    2.00
   4  -2   2   11.20    2.00
  -4  -2  -2   16.00    2.60
   4  -2   2   13.20    2.10
   4  -2   2   12.10    2.30
   4  -2   2   15.60    1.90
  -4  -2  -2   12.10    2.30
   4  -2   2   11.80    2.50
  -4  -2  -2   12.10    2.20
   4   2   2   17.80    2.60
  -4   2  -2   12.30    2.50
   4   2   2   10.70    1.90
   4   2   2   10.10    1.90
   4   2   2   10.60    2.00
   4   2   2   10.80    1.70
  -4   2  -2   11.70    2.10
  -4   2  -2   13.30    2.20
  -4   2  -2   11.10    1.80
   6  -2   2   44.40    4.20
  -6  -2  -2   46.40    4.50
   6  -2   2   50.89    3.60
   6  -2   2   48.60    4.80
   6  -2   2   49.70    4.30
  -6  -2  -2   50.09    4.00
   6  -2   2   57.39    4.10
  -6  -2  -2   42.10    4.90
  -6  -2  -2   47.60    3.90
   6   2   2   47.60    3.70
  -6   2  -2   43.20    3.90
  -6   2  -2   52.29    4.60
   6   2   2   55.19    4.50
   6   2   2   48.80    4.20
  -6   2  -2   49.99    4.30
   6   2   2   50.09    4.30
   6   2   2   44.10    4.90
  -8  -2  -2    4.90    3.40
  -8  -2  -2    2.90    2.80
   8  -2   2    1.10    1.90
   8  -2   2   -0.10    2.80
   8  -2   2   -1.80    2.30
   8  -2   2    0.70    2.50
   8  -2   2    0.40    3.20
   8   2   2   -2.00    2.40
  -8   2  -2    0.90    2.10
   8   2   2    0.20    1.80
  -8   2  -2   -2.20    4.20
   8   2   2    1.00    2.80
   8   2   2    4.20    2.70
  10  -2   2   31.90    4.70
 -10  -2  -2   15.20    5.90
  10  -2   2   24.30    5.30
  10  -2   2   39.90    7.90
 -10  -2  -2   27.40    4.50
  10  -2   2   39.40    6.80
  10  -2   2   24.30    4.50
 -10   2  -2   26.10    5.20
  10   2   2   42.30    6.80
  10   2   2   28.10    6.00
  10   2   2   31.70    5.30
  10   2   2   27.30    6.80
  12  -2   2   41.80    7.10
  12  -2   2   40.20    7.00
  12  -2   2   33.50    7.20
  12  -2   2   39.00    8.20
  12   2   2   36.70    7.30
  12   2   2   43.90    7.30
  13  -3  -2    1.20    7.70
  13  -3  -2   -4.60    6.00
  13   3  -2   11.20    4.90
  13   3  -2   11.50    5.90
  11  -3  -2    1.10    3.50
  11  -3  -2   -0.10    3.80
  11  -3  -2   -0.50    3.90
  11   3  -2   -0.60    3.60
   9  -3  -2  189.28   10.60
   9  -3  -2  185.58   10.90
   9   3  -2  192.18   10.80
   9   3  -2  177.88   10.50
   7  -3  -2   77.89    5.50
  -7  -3   2   78.89    5.90
  -7  -3   2   88.79    5.90
   7  -3  -2   79.09    5.60
  -7   3   2   68.69    6.00
   7   3  -2   80.39    5.60
   7   3  -2   84.69    5.70
   7   3  -2   76.29    5.60
   7   3  -2   80.09    5.40
  -7   3   2   75.89    5.40
   7   3  -2   80.99    5.40
  -7   3   2   65.79    5.20
  -5  -3   2  185.78   10.20
   5  -3  -2  193.78   10.10
   5  -3  -2  200.58    9.60
  -5  -3   2  213.58   10.50
  -5  -3   2  193.88    9.40
  -5   3   2  173.68   11.50
  -5   3   2  185.98    9.80
   5   3  -2  186.58   10.30
   5   3  -2  201.18   10.00
  -5   3   2  195.28   10.20
  -5   3   2  187.88   10.00
   5   3  -2  181.58   10.10
   5   3  -2  178.08   10.20
   5   3  -2  196.98   10.10
  -5   3   2  191.68   10.40
  -5   3   2  191.08    9.70
   5   3  -2  190.18   10.40
  -3  -3   2   23.20    2.50
   3  -3  -2   23.50    2.70
   3  -3  -2   23.00    2.80
  -3  -3   2   25.40    2.00
  -3  -3   2   21.50    2.50
   3  -3  -2   23.60    2.40
   3   3  -2   17.50    3.10
  -3   3   2   24.30    2.40
  -3   3   2   20.80    3.20
  -3   3   2   28.20    3.00
   3   3  -2   24.30    2.60
  -3   3   2   23.30    2.50
   3   3  -2   23.50    2.70
   3   3  -2   28.30    2.50
  -3   3   2   21.40    2.40
   3   3  -2   24.80    3.40
   3   3  -2   22.70    2.00
  -3   3   2   24.80    3.20
   3   3  -2   27.30    2.70
  -3   3   2   19.20    3.00
   3   3  -2   21.80    2.50
  -1  -3   2   42.80    3.90
  -1  -3   2   50.59    3.80
   1  -3  -2   46.20    3.60
   1  -3  -2   45.30    4.10
  -1  -3   2   45.70    3.50
   1  -3  -2   55.99    3.80
   1  -3  -2   49.90    3.40
   1  -3  -2   46.10    4.20
  -1  -3   2   55.19    3.20
  -1  -3   2   48.20    3.50
   1   3  -2   47.70    3.30
  -1   3   2   50.79    3.40
  -1   3   2   50.49    4.00
   1   3  -2   48.10    3.50
   1   3  -2   52.19    3.90
  -1   3   2   48.10    3.40
   1   3  -2   51.89    3.20
   1   3  -2   44.90    3.80
  -1   3   2   50.29    3.60
   1   3  -2   49.70    3.50
  -1  -3  -2  504.55   22.10
   1  -3   2  457.35   22.20
   1  -3   2  427.16   21.90
  -1  -3  -2  455.25   22.40
  -1  -3  -2  459.85   22.00
   1  -3   2  434.96   22.10
  -1  -3  -2  460.05   22.30
   1  -3   2  450.95   21.60
  -1  -3  -2  419.16   21.40
   1  -3   2  449.26   21.60
   1   3   2  397.66   22.00
  -1   3  -2  483.55   21.60
  -1   3  -2  480.55   22.00
   1   3   2  456.25   21.80
  -1   3  -2  457.55   21.70
   1   3   2  473.25   21.90
  -1   3  -2  391.06   21.80
   1   3   2  442.66   22.00
  -1   3  -2  436.96   22.00
   1   3   2  475.95   22.30
  -3  -3  -2  201.18   10.70
  -3  -3  -2  223.18   11.50
   3  -3   2  216.68   11.50
  -3  -3  -2  210.08   11.00
   3  -3   2  211.48   10.60
   3  -3   2  203.18   11.10
   3  -3   2  200.48   10.70
  -3  -3  -2  218.08   11.40
   3  -3   2  204.48   11.20
  -3   3  -2  216.28   11.00
  -3   3  -2  207.98   11.00
   3   3   2  206.98   11.30
   3   3   2  206.28   10.60
   3   3   2  209.38   10.90
   3   3   2  208.58   11.10
  -3   3  -2  190.28   10.30
   3   3   2  208.08   11.20
  -3   3  -2  210.78   10.70
   5  -3   2   49.10    5.10
  -5  -3  -2   55.39    4.60
   5  -3   2   52.39    4.70
   5  -3   2   55.49    4.30
  -5  -3  -2   50.39    4.40
  -5  -3  -2   56.09    4.30
  -5  -3  -2   49.60    5.20
   5  -3   2   53.59    4.70
   5  -3   2   53.59    5.20
  -5  -3  -2   56.49    5.40
  -5   3  -2   55.39    4.40
   5   3   2   60.39    4.90
  -5   3  -2   48.70    4.90
   5   3   2   58.29    4.80
  -5   3  -2   49.30    4.30
  -5   3  -2   51.49    4.90
   5   3   2   57.99    4.50
   5   3   2   56.69    5.00
  -7  -3  -2  437.26   22.70
   7  -3   2  453.05   22.90
   7  -3   2  448.16   23.00
   7  -3   2  427.06   23.10
   7  -3   2  467.05   22.10
   7  -3   2  443.96   22.50
  -7   3  -2  465.75   22.20
   7   3   2  454.75   22.90
  -7   3  -2  432.46   22.20
   7   3   2  474.85   22.80
   7   3   2  480.85   22.70
   7   3   2  422.36   22.40
   7   3   2  440.16   22.70
  -9  -3  -2    6.60    5.50
   9  -3   2   -0.90    4.40
   9  -3   2    1.70    3.80
   9  -3   2    7.60    4.00
  -9  -3  -2   -1.70    4.80
   9  -3   2    7.20    2.90
   9   3   2    4.30    4.10
  -9   3  -2   14.10    4.20
   9   3   2    6.70    3.70
  -9   3  -2    4.10    4.90
   9   3   2    0.60    4.30
   9   3   2    3.70    2.90
   9   3   2   -1.60    3.90
  11  -3   2   19.50    6.40
  11  -3   2   32.90    7.10
  11  -3   2   27.60    6.50
  11  -3   2   36.30    7.30
  11  -3   2   32.60    5.20
  11   3   2   23.60    5.90
  11   3   2   24.90    6.70
  11   3   2   32.60    6.70
  11   3   2   32.60    5.30
  12  -4  -2    4.70    6.00
  12  -4  -2   19.70    6.40
  12   4  -2    6.10    6.00
  12   4  -2    5.80    4.80
  10  -4  -2   -0.70    4.30
  10  -4  -2    2.80    3.90
  10  -4  -2   11.00    4.70
  10   4  -2    6.60    3.90
 -10   4   2    2.40    4.30
  10   4  -2    3.20    4.20
   8  -4  -2    0.10    2.80
  -8  -4   2    2.00    3.10
  -8   4   2    3.00    3.60
   8   4  -2   -2.20    5.90
  -8   4   2    1.20    3.10
  -8   4   2    0.70    2.90
   8   4  -2    2.10    2.40
  -8   4   2   -3.20    3.30
   8   4  -2   -0.70    3.20
   8   4  -2    0.30    3.30
   8   4  -2    1.00    3.20
  -6  -4   2  145.99    7.30
   6  -4  -2  133.49    8.60
  -6  -4   2  143.39    8.80
   6  -4  -2  137.99    7.60
  -6  -4   2  134.29    8.50
   6   4  -2  130.39    9.00
   6   4  -2  148.99    8.70
   6   4  -2  136.19    8.80
  -6   4   2  144.89    9.10
   6   4  -2  146.69    8.60
  -6   4   2  125.29    8.60
  -6   4   2  137.59    9.00
  -6   4   2  137.89    8.30
   6   4  -2  136.49    8.50
  -6   4   2  145.29    8.00
   6   4  -2  135.19    8.70
  -6   4   2  129.19    7.90
  -4  -4   2    1.40    1.70
   4  -4  -2   -0.20    1.30
  -4  -4   2    0.10    1.30
  -4  -4   2    4.40    2.00
   4  -4  -2    1.40    2.20
   4   4  -2    4.90    1.90
   4   4  -2   -1.90    2.50
   4   4  -2   -2.10    1.50
  -4   4   2   -0.50    1.70
  -4   4   2    0.80    2.40
   4   4  -2    1.40    2.40
  -4   4   2   -0.40    1.60
  -4   4   2    3.10    1.80
   4   4  -2   -1.00    2.00
  -4   4   2    0.00    2.30
  -4   4   2    3.10    2.20
   4   4  -2    1.40    1.20
  -4   4   2   -1.10    2.30
   4   4  -2    2.50    2.20
   4   4  -2    1.10    2.00
   4   4  -2    2.20    2.10
  -2  -4   2   78.39    6.10
   2  -4  -2   88.99    5.50
  -2  -4   2   85.29    5.00
  -2  -4   2   88.79    5.50
   2  -4  -2   87.29    5.80
  -2   4   2   89.79    5.70
  -2   4   2   84.59    6.50
   2   4  -2   86.59    6.60
   2   4  -2   76.79    5.80
   2   4  -2   96.59    6.10
  -2   4   2   86.29    5.70
   2   4  -2   86.19    5.70
   2   4  -2   83.39    6.40
  -2   4   2   70.89    6.40
  -2   4   2   85.59    6.30
  -2   4   2   81.19    6.20
  -2   4   2   86.19    5.20
   2   4  -2   80.19    5.50
   2   4  -2   85.39    5.40
   0  -4   2   23.20    3.10
   0  -4  -2   28.80    2.80
   0  -4  -2   31.50    4.20
   0  -4  -2   32.70    3.10
   0  -4   2   22.40    3.00
   0  -4  -2   23.80    4.30
   0  -4   2   28.90    2.80
   0  -4  -2   37.30    4.70
   0   4   2   25.20    4.20
   0   4  -2   18.10    3.70
   0   4  -2   25.80    2.80
   0   4   2   27.10    2.90
   0   4   2   23.10    4.10
   0   4   2   22.90    3.50
   0   4  -2   29.50    3.70
   0   4   2   27.10    3.50
   0   4  -2   26.70    3.00
   2  -4   2  423.56   20.60
  -2  -4  -2  426.56   20.60
  -2  -4  -2  414.66   20.90
   2  -4   2  390.36   21.00
  -2  -4  -2  418.86   21.00
   2  -4   2  422.96   20.20
  -2  -4  -2  396.16   21.00
   2  -4   2  411.36   20.80
  -2  -4  -2  380.16   20.00
   2  -4   2  431.06   20.10
  -2   4  -2  383.86   20.60
  -2   4  -2  393.46   20.80
  -2   4  -2  402.56   20.00
   2   4   2  368.26   20.80
   2   4   2  407.66   20.40
   2   4   2  436.66   20.50
  -2   4  -2  422.36   20.50
  -2   4  -2  437.96   20.70
   2   4   2  409.96   20.80
  -4  -4  -2    4.20    2.10
  -4  -4  -2   13.90    3.20
  -4  -4  -2    9.40    2.80
   4  -4   2    9.50    2.40
   4  -4   2    7.60    2.50
   4  -4   2   11.40    3.20
   4  -4   2    8.30    2.00
  -4  -4  -2   11.30    2.40
   4  -4   2    6.40    2.80
  -4   4  -2    7.10    2.90
   4   4   2    6.90    3.00
   4   4   2   11.60    2.90
  -4   4  -2    6.70    2.30
   4   4   2    6.70    2.90
  -4   4  -2    1.40    2.90
   4   4   2    8.10    2.20
  -4   4  -2   10.40    1.90
  -4   4  -2   12.60    2.30
   6  -4   2   47.00    4.70
  -6  -4  -2   43.00    5.10
   6  -4   2   38.10    6.30
   6  -4   2   50.49    5.50
   6  -4   2   41.40    7.00
   6  -4   2   43.60    5.10
  -6   4  -2   36.10    6.20
   6   4   2   54.59    5.00
  -6   4  -2   40.60    5.30
   6   4   2   48.50    6.20
   6   4   2   51.19    6.10
  -6   4  -2   45.80    5.10
   6   4   2   48.70    5.10
   6   4   2   49.70    6.00
  -6   4  -2   50.89    5.40
  -8  -4  -2    9.90    8.50
   8  -4   2    2.00    4.60
   8  -4   2   -2.50    3.90
   8  -4   2    2.60    5.10
  -8  -4  -2   -5.70    5.50
   8  -4   2   -5.20    3.40
  -8  -4  -2   -7.60    4.20
   8  -4   2   -5.70    3.20
   8   4   2    5.60    4.40
  -8   4  -2   -0.80    3.00
   8   4   2    5.50    4.10
   8   4   2   -2.90    4.00
  -8   4  -2    2.00    3.40
  -8   4  -2   12.70    6.40
   8   4   2   -0.10    2.80
  10  -4   2    7.60    6.30
  10  -4   2    6.40    6.90
  10  -4   2   19.70    5.60
  10  -4   2   13.50    6.60
  10  -4   2    0.20    5.30
  10   4   2    5.50    4.10
  10   4   2   18.50    5.70
  10   4   2   -0.20    6.20
  10   4   2   10.70    6.20
  11  -5  -2    4.70    6.80
  11   5  -2    9.70    6.90
  11   5  -2    2.70    5.30
   9  -5  -2  112.09    9.70
  -9  -5   2  102.19    9.80
   9   5  -2  102.29   10.20
  -9   5   2  103.49   10.50
   9   5  -2  113.79    9.80
  -9   5   2   87.99   10.70
   9   5  -2   90.39    8.90
   9   5  -2   91.49    9.90
   9   5  -2  100.09    9.70
  -7  -5   2   25.10    3.50
  -7  -5   2   35.40    5.60
   7  -5  -2   32.00    3.80
   7  -5  -2   30.50    4.60
  -7  -5   2   28.70    5.10
  -7   5   2   39.70    5.90
   7   5  -2   36.40    5.20
   7   5  -2   30.80    5.10
  -7   5   2   30.10    4.80
  -7   5   2   28.20    4.80
  -7   5   2   31.40    6.40
   7   5  -2   30.30    5.30
  -7   5   2   27.80    5.40
  -7   5   2   24.50    3.80
   7   5  -2   25.20    4.60
   7   5  -2   25.70    5.10
  -5  -5   2   77.19    7.30
  -5  -5   2   67.39    6.30
   5  -5  -2   68.79    6.60
   5  -5  -2   77.49    5.40
   5   5  -2   87.39    6.40
   5   5  -2   89.29    7.80
   5   5  -2   75.69    7.00
  -5   5   2   68.79    6.10
  -5   5   2   71.49    6.50
   5   5  -2   60.39    6.70
   5   5  -2   82.29    7.00
  -5   5   2   72.39    7.60
   5   5  -2   67.09    6.10
  -5   5   2   70.39    7.50
   5   5  -2   70.59    6.60
  -5   5   2   73.99    7.70
   3  -5  -2    9.60    2.90
  -3  -5   2   11.90    2.70
   3  -5  -2   11.20    2.40
  -3  -5   2    7.80    2.20
  -3  -5   2   14.30    3.10
   3   5  -2   10.00    4.10
  -3   5   2    8.10    2.10
  -3   5   2    9.30    2.80
  -3   5   2    8.90    2.80
  -3   5   2    7.60    2.70
   3   5  -2    7.90    2.90
   3   5  -2    8.10    2.90
   3   5  -2    7.60    3.50
   3   5  -2   10.70    3.50
   3   5  -2    9.50    2.90
   3   5  -2    3.00    2.20
  -3   5   2    9.60    3.70
   3   5  -2   14.50    3.50
  -3   5   2   12.00    3.70
  -3   5   2    6.40    3.50
   1  -5  -2   10.70    2.40
  -1  -5   2   15.10    3.20
  -1  -5   2   10.40    2.20
  -1   5   2   14.40    2.90
  -1   5   2   11.50    3.90
   1   5  -2   16.90    3.90
  -1   5   2    9.90    3.60
  -1   5   2   12.40    3.70
   1   5  -2    9.20    3.40
  -1   5   2   13.50    2.90
   1   5  -2   13.90    3.70
  -1   5   2   13.10    3.10
   1   5  -2   13.40    2.50
   1   5  -2   10.50    3.40
   1   5  -2   12.60    3.10
   1   5  -2   12.40    2.80
  -1   5   2   13.50    2.40
   1   5  -2   11.90    2.70
  -1   5   2   12.50    3.60
   1  -5   2  153.18    8.70
   1  -5   2  144.39    8.80
  -1  -5  -2  146.09    8.10
  -1  -5  -2  151.08   10.30
  -1  -5  -2  147.89   10.20
  -1  -5  -2  144.49    8.40
  -1  -5  -2  150.18    8.90
   1  -5   2  145.29    8.40
   1   5   2  142.79    9.70
  -1   5  -2  139.49   10.10
  -1   5  -2  152.18   10.20
   1   5   2  135.99    9.20
  -1   5  -2  143.39    8.40
  -1   5  -2  135.89    9.60
   1   5   2  137.19    8.70
   1   5   2  131.59    9.60
  -1   5  -2  147.79    9.50
  -1   5  -2  149.39    8.60
  -1   5  -2  146.79    9.10
   3  -5   2   94.39    6.90
  -3  -5  -2   87.49    5.70
  -3  -5  -2   96.79    9.00
   3  -5   2   92.79    8.20
   3  -5   2   84.59    8.30
   3  -5   2   95.79    7.20
  -3  -5  -2   86.29    6.30
  -3   5  -2   88.99    7.10
   3   5   2   91.89    8.00
  -3   5  -2   94.99    7.70
  -3   5  -2   97.59    7.30
   3   5   2   87.29    7.70
  -3   5  -2   77.89    7.00
  -3   5  -2   95.49    6.00
   3   5   2   87.29    7.50
   3   5   2   86.19    6.70
  -3   5  -2   86.79    6.60
   5  -5   2   23.80    4.30
   5  -5   2   18.60    5.40
   5  -5   2   17.90    3.50
   5  -5   2   16.10    3.80
  -5  -5  -2   26.60    5.80
   5  -5   2   15.60    4.90
  -5  -5  -2   13.00    3.70
  -5  -5  -2   25.00    4.00
  -5  -5  -2   20.70    5.50
   5   5   2    9.80    5.80
  -5   5  -2   22.00    3.10
   5   5   2    6.00    5.60
   5   5   2   20.70    4.10
  -5   5  -2   19.80    4.00
   5   5   2   19.90    4.90
  -5   5  -2   21.50    6.30
  -5   5  -2   21.40    5.00
  -5   5  -2   19.70    3.70
  -7  -5  -2  252.27   17.70
  -7  -5  -2  268.57   15.00
   7  -5   2  253.87   14.90
   7  -5   2  271.87   17.00
   7  -5   2  243.58   16.50
   7  -5   2  274.37   15.90
   7  -5   2  234.88   14.40
   7   5   2  257.27   15.10
   7   5   2  278.17   16.10
  -7   5  -2  229.48   15.10
   7   5   2  267.57   16.00
   7   5   2  252.57   15.80
   9  -5   2    3.00    4.90
   9  -5   2   15.40    6.60
   9  -5   2    6.80    7.30
   9  -5   2   -2.20    7.60
   9   5   2   -1.80    6.10
  -9   5  -2    6.50    5.20
   9   5   2   -3.10    6.90
   9   5   2   -1.40    4.40
   9   5   2    1.50    6.00
  10  -6  -2   15.60    8.00
 -10  -6   2    2.20    8.90
  10   6  -2    1.90    6.70
  10   6  -2  -13.80    7.90
  10   6  -2   10.20    8.50
   8  -6  -2   -2.90    5.10
  -8  -6   2    2.90    5.70
  -8   6   2    3.70    6.90
   8   6  -2    6.90   11.00
  -8   6   2   10.90    4.50
   8   6  -2    3.30    6.30
   8   6  -2   -7.80    7.30
   8   6  -2    6.70    4.80
  -8   6   2    1.30    5.70
   8   6  -2   -4.40    6.30
   8   6  -2   -0.10    6.00
  -6  -6   2   46.50    5.60
   6  -6  -2   48.40    7.80
   6  -6  -2   56.99    6.20
  -6  -6   2   62.89    8.00
  -6   6   2   50.69    7.30
   6   6  -2   54.09    8.90
   6   6  -2   66.79    9.20
   6   6  -2   66.09    8.70
  -6   6   2   43.20    7.70
   6   6  -2   67.49    7.20
   6   6  -2   64.29   10.40
   6   6  -2   71.49    9.70
  -6   6   2   61.99   10.00
   6   6  -2   48.70    6.70
   6   6  -2   74.49    8.90
  -6   6   2   65.49    9.70
   4  -6  -2   -2.10    3.30
  -4  -6   2    2.40    2.90
   4  -6  -2    6.70    3.50
  -4  -6   2    0.00    3.90
  -4  -6   2   -3.40    3.00
   4  -6  -2    0.50    3.70
   4   6  -2   -0.20    3.90
   4   6  -2    0.70    4.50
   4   6  -2   -0.40    3.10
   4   6  -2    6.50    5.10
  -4   6   2   10.90    4.00
  -4   6   2    1.00    5.00
  -4   6   2   -5.30    4.80
   4   6  -2    6.90    4.20
  -4   6   2    3.90    5.30
  -4   6   2    6.10    2.70
  -4   6   2    3.10    6.10
  -4   6   2    4.20    4.60
   4   6  -2   -4.80    4.50
   4   6  -2    0.00    4.20
   4   6  -2    2.30    4.90
  -2  -6   2   20.50    4.00
   2  -6  -2   24.00    3.60
  -2  -6   2   20.20    4.60
   2  -6  -2   16.50    4.00
   2   6  -2   18.30    5.10
  -2   6   2   15.30    3.70
  -2   6   2   15.60    5.10
   2   6  -2    9.50    5.50
   2   6  -2   14.80    4.10
   2   6  -2   17.50    5.40
  -2   6   2   13.60    3.00
  -2   6   2   10.30    5.00
   2   6  -2   19.50    5.60
  -2   6   2   13.20    3.90
   2   6  -2    4.80    4.10
   2   6  -2    6.60    3.50
   2   6  -2   16.10    3.60
  -2   6   2   16.40    5.20
  -2   6   2   15.30    4.20
   0  -6   2    3.50    3.40
   0  -6  -2    3.30    2.90
   0  -6  -2    0.90    3.00
   0  -6   2   -0.10    2.50
   0   6  -2    1.60    5.50
   0   6  -2    8.70    3.60
   0   6  -2    0.30    4.40
   0   6   2    1.90    5.20
   0   6   2    2.50    4.80
   0   6  -2    9.10    2.90
   0   6   2    6.20    4.60
   0   6  -2    5.00    4.70
   0   6   2   -0.40    5.50
   0   6   2    5.00    3.80
   0   6  -2   -1.00    4.60
   0   6   2    1.00    4.00
  -2  -6  -2  110.89    7.50
   2  -6   2   98.69    8.10
  -2  -6  -2   98.49    8.70
   2  -6   2  104.29    7.90
  -2  -6  -2  114.89    7.90
   2   6   2  125.59   11.40
   2   6   2  111.19    8.20
  -2   6  -2  114.49   10.70
   2   6   2   94.99   10.10
  -2   6  -2   90.29   10.00
  -2   6  -2  103.69    8.30
  -2   6  -2   97.49    9.00
   2   6   2  106.09    9.00
  -2   6  -2  105.39    8.40
  -2   6  -2  121.69    7.80
   2   6   2  114.69   10.30
  -2   6  -2  118.89    9.70
   2   6   2  108.19    9.10
  -4  -6  -2   10.20    3.10
   4  -6   2    8.30    4.20
  -4  -6  -2    8.30    4.00
  -4   6  -2    9.20    6.10
  -4   6  -2    2.70    3.90
  -4   6  -2    9.30    4.40
   4   6   2    5.30    4.80
   4   6   2   11.10    4.00
  -4   6  -2    6.90    7.20
   4   6   2   16.50    5.40
   4   6   2    4.60    4.90
  -4   6  -2    5.90    5.80
  -4   6  -2    7.10    2.90
   6  -6   2   52.49    8.70
  -6  -6  -2   40.00    6.20
   6  -6   2   50.39    7.90
  -6   6  -2   36.10    8.70
   6   6   2   35.00    6.00
   6   6   2   59.49    9.50
   6   6   2   36.40    7.10
  -6   6  -2   33.70    8.70
  -6   6  -2   32.70    6.60
   6   6   2   40.80    7.40
  -6   6  -2   24.80    5.90
   8  -6   2    2.30    6.70
   8  -6   2    7.80    6.70
  -8   6  -2   -1.20    6.60
  -8   6  -2   -3.70    9.70
   8   6   2  -10.00    6.90
   8   6   2   -5.90    5.00
   8   6   2    4.20    8.10
  -7  -7   2    7.40    7.10
   7  -7  -2   14.00    6.60
  -7   7   2   11.40    6.80
  -7   7   2   12.40    9.20
   7   7  -2   19.40    8.30
   7   7  -2   -2.40    6.20
   7   7  -2    5.50    8.20
   7   7  -2   25.50    9.00
  -5  -7   2   27.40    5.10
   5  -7  -2   38.50    6.70
   5  -7  -2   21.00    6.00
  -5  -7   2   33.40    6.30
   5   7  -2   31.40    8.30
   5   7  -2   20.30    7.00
   5   7  -2   19.20    7.50
   5   7  -2   37.10   10.70
  -5   7   2   20.00    8.20
   5   7  -2    6.30    9.60
  -5   7   2   31.20    8.10
   5   7  -2   30.30    5.70
  -5   7   2   27.50    6.40
  -5   7   2    8.10    7.20
  -3  -7   2    8.50    4.50
   3  -7  -2   -0.10    4.60
  -3  -7   2    7.90    4.90
   3   7  -2    0.40    8.30
   3   7  -2    5.40    5.70
   3   7  -2    5.20    6.50
  -3   7   2   -0.60    6.80
  -3   7   2    3.30    7.00
   3   7  -2    9.00    7.70
  -3   7   2   11.10    4.20
   3   7  -2    8.30    4.60
  -3   7   2   12.00    5.20
   3   7  -2   15.50    7.30
   1  -7  -2    2.90    5.90
   1  -7  -2   -2.40    3.60
  -1  -7   2   -3.20    4.10
  -1   7   2    3.80    6.40
  -1   7   2    1.80    7.20
   1   7  -2   13.50    6.80
  -1   7   2    7.90    6.20
  -1   7   2    7.30    4.40
  -1   7   2   -4.50    4.90
   1   7  -2    0.00    5.10
   1   7  -2    7.10    6.60
   1   7  -2   -9.50    7.70
   1   7  -2   14.80    6.70
   1   7  -2   10.60    4.00
  -1  -7  -2   47.70    7.30
  -1  -7  -2   66.69    7.70
  -1   7  -2   59.09    7.30
  -1   7  -2   53.59    8.00
  -1   7  -2   48.30    8.40
   1   7   2   43.50    8.20
   1   7   2   40.90    7.10
   1   7   2   49.60    8.10
   1   7   2   61.29    7.30
   1   7   2   47.60    9.30
  -1   7  -2   46.10    8.40
  -3  -7  -2   33.80    5.40
  -3  -7  -2   45.70    7.90
   3  -7   2   39.90    6.40
  -3   7  -2   34.80    6.40
   3   7   2   35.40    7.10
  -3   7  -2   27.40    8.60
   3   7   2   60.89   10.80
   3   7   2   26.70    8.10
   3   7   2   52.09   10.50
   3   7   2   45.20    7.70
  -3   7  -2   49.00    9.50
   3   7   2   32.50   10.20
  -3   7  -2   24.40    8.80
  -5  -7  -2   12.50    6.10
   5  -7   2   -2.00    6.00
   5   7   2   -8.50    7.80
   5   7   2    6.30    6.90
  -5   7  -2   22.30    9.30
  -5   7  -2    8.50    6.70
   5   7   2   28.70   15.50
  -5   7  -2    1.10    9.50
   5   7   2   -0.80    5.50
  -5   7  -2    7.50    4.70
  -4  -8   2  -11.70    8.20
  -4   8   2   -4.00    7.50
   4   8  -2   -2.50    8.90
   4   8  -2    1.20    7.00
  -4   8   2    1.90   10.70
   2  -8  -2    2.30    5.70
  -2  -8   2    5.90    7.20
   2   8  -2    3.90    9.70
   2   8  -2   -6.00    7.90
  -2   8   2    9.00    9.40
  -2   8   2   -2.80    5.40
  -2   8   2  -13.10    9.60
   2   8  -2    7.20    9.70
  -2   8   2  -10.50    7.60
   2   8  -2   -3.60    6.40
   0  -8  -2   -5.60    6.00
   0  -8   2    4.60    7.00
   0   8  -2   -7.90    9.80
   0   8   2   -8.60    9.80
   0   8   2   12.70   10.10
   0   8  -2  -14.70    7.90
   0   8   2   -8.90    5.20
   0   8  -2   21.10   10.40
   0   8  -2   -2.60    5.80
   0   8   2   -2.40    7.30
  -2  -8  -2   28.00    7.20
  -2   8  -2   32.80    8.90
  -2   8  -2   16.80   11.90
  -2   8  -2   29.10   12.40
   2   8   2   15.00    8.70
   2   8   2   34.40   10.50
   2   8   2   28.40    7.00
  -2   8  -2   31.70    6.50
   2   8   2   44.30   11.00
  14   0  -3   20.40    5.50
  12   0  -3   10.70    2.60
  12   0  -3    4.40    3.40
  12   0  -3    3.70    4.70
  10   0  -3   23.70    3.70
  10   0  -3   21.50    2.70
  10   0  -3   21.00    3.30
  10   0  -3   21.80    3.10
   8   0  -3  221.28   10.90
   8   0  -3  221.48   11.20
   8   0  -3  215.88   11.20
   6   0  -3  170.98    8.60
   6   0  -3  166.18    9.00
   6   0  -3  180.48    8.70
   4   0  -3  458.95   22.00
   4   0  -3  472.75   22.10
   2   0  -3  173.08    9.50
   2   0  -3  206.58    9.60
  -2   0   3  188.08    9.60
   2   0  -3  214.88    9.70
  -2   0   3  188.98    9.50
   2   0  -3  219.78    9.60
   0   0   3  626.04   26.60
   0   0  -3  532.95   26.80
   0   0  -3  561.54   26.50
   0   0   3  583.74   26.80
   0   0  -3  547.85   26.80
   0   0   3  528.75   26.70
   0   0  -3  601.24   26.80
   0   0   3  561.94   26.70
   2   0   3  489.85   22.80
  -2   0  -3  473.25   23.30
  -2   0  -3  526.25   23.40
  -2   0  -3  490.35   22.80
  -2   0  -3  471.75   23.20
   2   0   3  484.55   23.30
   2   0   3  513.95   23.40
   2   0   3  446.96   23.20
   4   0   3   90.69    5.50
  -4   0  -3   85.79    5.10
   4   0   3   85.69    4.50
   4   0   3   89.39    5.50
  -4   0  -3   92.69    5.50
  -4   0  -3   89.69    5.40
   4   0   3   87.19    5.50
  -4   0  -3   83.99    4.80
  -4   0  -3   86.19    4.60
  -6   0  -3   31.50    3.10
   6   0   3   43.70    4.30
  -6   0  -3   43.50    3.60
   6   0   3   39.90    4.10
  -6   0  -3   41.60    4.00
  -6   0  -3   36.80    4.20
   6   0   3   37.20    3.90
   6   0   3   39.40    3.70
  -8   0  -3  122.79    7.50
   8   0   3  131.19    8.40
   8   0   3  127.19    8.40
   8   0   3  115.99    7.80
 -10   0  -3   68.09    9.20
  10   0   3   47.50    6.70
  10   0   3   50.49   10.30
  10   0   3   44.40    7.30
  12   0   3   12.30    6.50
  12   0   3   10.60    6.30
  12   0   3   15.90    7.10
  12   0   3   11.90    6.60
  13  -1  -3    2.50    3.10
  13  -1  -3    0.80    4.30
  13   1  -3    1.20    4.00
  13   1  -3   -0.10    3.10
  11  -1  -3    3.70    3.40
  11  -1  -3   11.10    3.30
  11   1  -3   11.10    3.00
  11   1  -3   10.50    3.50
  11   1  -3    8.20    2.50
   9  -1  -3  211.78   11.40
   9  -1  -3  206.38   10.90
   9   1  -3  221.58   11.10
   9   1  -3  194.08   10.20
   9   1  -3  197.18   11.00
   9   1  -3  207.58   11.50
   7  -1  -3   15.80    2.40
   7  -1  -3   15.50    2.30
   7   1  -3   19.90    2.40
   7   1  -3   14.10    1.60
   7   1  -3   16.20    2.40
  -5  -1   3  263.37   13.00
   5  -1  -3  252.47   12.60
   5   1  -3  264.67   13.00
  -5   1   3  284.57   12.60
   5   1  -3  253.17   12.90
   5   1  -3  245.88   12.50
   3  -1  -3    0.90    0.70
   3  -1  -3    1.40    0.90
  -3  -1   3    1.30    0.70
  -3  -1   3    0.60    0.60
   3  -1  -3    1.20    0.60
   3  -1  -3    0.80    0.80
   3   1  -3    0.30    0.50
   3   1  -3    0.40    0.60
  -3   1   3    0.90    0.60
   3   1  -3    1.00    0.70
  -3   1   3   -0.20    0.50
   3   1  -3    0.30    0.60
  -3   1   3    1.40    0.80
  -1  -1   3 2738.73  134.49
  -1  -1   3 2948.41  134.39
   1  -1  -3 2792.62  134.49
  -1  -1   3 3026.80  134.39
   1  -1  -3 2682.93  134.49
   1  -1  -3 3121.69  134.49
  -1   1   3 3078.49  134.49
  -1   1   3 3016.20  134.59
   1   1  -3 2695.73  134.29
   1   1  -3 3067.39  134.49
  -1   1   3 2881.91  134.39
   1   1  -3 3185.98  134.49
   1   1  -3 2608.74  134.19
   1  -1   3   75.69    3.80
  -1  -1  -3   68.59    4.30
  -1  -1  -3   64.29    3.60
  -1  -1  -3   68.99    4.00
  -1  -1  -3   69.39    4.30
  -1  -1  -3   77.59    4.20
   1  -1   3   68.09    4.10
   1  -1   3   71.89    3.70
   1  -1   3   70.59    4.30
   1  -1   3   68.79    4.20
   1   1   3   71.49    4.20
  -1   1  -3   64.19    3.80
   1   1   3   63.59    4.10
   1   1   3   58.09    4.00
  -1   1  -3   72.19    4.10
   1   1   3   70.19    3.70
  -1   1  -3   79.89    4.20
  -3  -1  -3   49.60    3.70
   3  -1   3   50.59    3.80
   3  -1   3   44.80    3.50
   3  -1   3   50.69    3.00
  -3  -1  -3   55.39    3.30
  -3  -1  -3   46.90    3.50
   3  -1   3   43.80    3.60
  -3  -1  -3   51.69    3.70
   3  -1   3   49.80    3.20
  -3   1  -3   49.20    3.40
  -3   1  -3   49.50    3.70
   3   1   3   48.40    3.80
  -3   1  -3   45.80    2.90
  -3   1  -3   47.80    3.50
   3   1   3   43.40    3.60
   3   1   3   50.49    3.20
   3   1   3   45.80    3.50
   5  -1   3   31.10    3.10
  -5  -1  -3   35.60    3.20
   5  -1   3   37.20    3.80
   5  -1   3   40.50    2.60
  -5  -1  -3   32.10    5.30
   5  -1   3   31.60    3.50
  -5  -1  -3   32.60    3.30
   5  -1   3   40.10    4.00
   5   1   3   34.70    3.50
  -5   1  -3   34.70    2.50
   5   1   3   35.70    3.20
   5   1   3   36.90    3.70
   5   1   3   38.30    3.60
  -5   1  -3   38.00    3.90
  -5   1  -3   37.50    3.20
   7  -1   3    8.90    1.70
   7  -1   3   10.00    3.00
  -7  -1  -3    7.40    2.40
  -7  -1  -3   10.50    2.30
   7  -1   3   10.60    2.70
   7  -1   3    9.30    2.70
   7  -1   3    6.10    2.00
  -7  -1  -3   10.50    3.20
   7   1   3    5.40    2.60
  -7   1  -3    6.30    3.00
  -7   1  -3   10.80    2.30
   7   1   3    7.20    2.70
   7   1   3    7.80    2.30
   7   1   3    6.20    2.50
   9  -1   3   44.70    7.10
   9  -1   3   56.19    6.00
   9  -1   3   72.29    7.50
   9  -1   3   70.39    6.90
  -9  -1  -3   64.39    7.40
  -9  -1  -3   68.19    5.50
  -9  -1  -3   54.19    7.70
   9   1   3   63.19    6.70
   9   1   3   43.90    6.70
  -9   1  -3   63.69    7.60
   9   1   3   56.09    7.30
   9   1   3   57.49    7.10
  -9   1  -3   64.09    6.80
  11  -1   3    1.10    5.30
  11  -1   3    8.90    4.90
  11  -1   3    5.70    5.60
  11  -1   3   14.30    5.50
  11   1   3   -0.70    4.70
  11   1   3   14.20    6.10
  11   1   3    1.60    5.50
  11   1   3   -6.50    4.40
  14  -2  -3    0.30    6.30
  14   2  -3   12.00    6.10
  14   2  -3    3.70    5.70
  12  -2  -3    0.10    4.20
  12  -2  -3    7.00    3.20
  12   2  -3    0.90    3.90
  12   2  -3    4.00    3.30
  10  -2  -3   21.80    3.60
  10  -2  -3   21.30    3.70
  10  -2  -3   21.40    3.00
  10   2  -3   21.60    4.10
  10   2  -3   30.60    5.00
   8  -2  -3  167.28    9.10
  -8  -2   3  160.28    9.40
   8  -2  -3  164.78    8.60
   8   2  -3  172.18    9.30
   8   2  -3  157.48    9.30
   8   2  -3  156.98    8.30
   6  -2  -3  120.39    6.20
   6  -2  -3  120.49    6.50
   6  -2  -3  123.59    6.60
  -6  -2   3  117.79    7.00
   6  -2  -3  114.09    6.60
  -6   2   3  128.69    6.60
   6   2  -3  116.79    6.80
   6   2  -3  113.59    6.20
  -6   2   3  117.99    6.60
   6   2  -3  118.49    6.90
   4  -2  -3  307.37   14.10
   4  -2  -3  277.47   14.20
   4  -2  -3  277.37   14.10
  -4  -2   3  272.17   14.10
  -4  -2   3  288.57   13.80
   4  -2  -3  280.67   13.90
  -4   2   3  306.77   14.20
  -4   2   3  303.57   14.30
  -4   2   3  278.27   13.70
  -4   2   3  269.97   13.80
   4   2  -3  279.47   14.40
   4   2  -3  273.67   13.70
   4   2  -3  309.07   13.90
  -4   2   3  274.27   13.70
   4   2  -3  275.67   13.80
  -4   2   3  281.87   14.10
   2  -2  -3  122.59    6.60
  -2  -2   3  116.49    6.70
   2  -2  -3  130.29    7.00
   2  -2  -3  120.59    6.80
  -2  -2   3  129.49    6.50
   2  -2  -3  129.89    7.00
  -2  -2   3  129.59    6.40
   2  -2  -3  118.09    6.50
  -2  -2   3  126.09    6.60
  -2  -2   3  137.89    6.80
  -2   2   3  130.89    6.90
   2   2  -3  128.29    6.70
   2   2  -3  131.79    6.70
   2   2  -3  122.19    6.60
  -2   2   3  123.29    6.60
   2   2  -3  121.59    6.40
  -2   2   3  111.69    7.90
   2   2  -3  127.49    6.80
   2   2  -3  123.99    6.30
  -2   2   3  125.39    6.50
   0  -2  -3  329.37   16.40
   0  -2   3  326.77   16.40
   0  -2   3  337.77   15.90
   0  -2   3  340.67   16.00
   0  -2  -3  316.87   16.20
   0  -2  -3  355.06   16.60
   0  -2   3  337.87   16.40
   0  -2  -3  306.47   16.40
   0  -2   3  330.97   16.30
   0   2  -3  323.67   16.00
   0   2   3  323.77   16.10
   0   2  -3  318.57   16.20
   0   2   3  355.56   16.30
   0   2   3  320.57   16.40
   0   2  -3  349.17   16.30
   0   2  -3  333.47   16.20
   0   2  -3  364.46   15.90
   0   2   3  318.67   16.40
  -2  -2  -3  309.67   16.90
   2  -2   3  361.76   16.40
   2  -2   3  332.57   16.40
  -2  -2  -3  363.06   17.10
  -2  -2  -3  352.46   16.80
  -2  -2  -3  366.96   16.80
   2  -2   3  298.37   16.70
   2  -2   3  375.36   17.00
   2  -2   3  332.57   16.80
   2   2   3  317.17   16.70
  -2   2  -3  322.47   16.30
   2   2   3  350.76   16.70
  -2   2  -3  367.56   16.80
  -2   2  -3  302.57   16.70
  -2   2  -3  357.46   16.90
  -2   2  -3  326.57   16.40
   2   2   3  309.57   16.80
   2   2   3  349.96   16.30
   2   2   3  349.96   17.00
  -4  -2  -3   59.79    5.10
   4  -2   3   54.69    4.40
   4  -2   3   55.39    4.60
  -4  -2  -3   54.29    4.30
  -4  -2  -3   56.69    4.70
   4  -2   3   65.59    4.90
   4  -2   3   67.49    4.20
   4  -2   3   63.59    3.90
  -4  -2  -3   64.29    4.50
   4   2   3   59.19    4.10
  -4   2  -3   57.59    4.50
   4   2   3   59.59    4.60
   4   2   3   59.99    4.70
  -4   2  -3   51.89    3.70
  -4   2  -3   60.19    4.40
   4   2   3   57.59    4.60
   4   2   3   60.09    4.10
  -4   2  -3   65.29    4.80
  -6  -2  -3   25.80    3.90
   6  -2   3   23.40    3.90
   6  -2   3   23.40    4.40
  -6  -2  -3   25.00    4.40
  -6  -2  -3   21.60    3.60
   6  -2   3   23.10    2.80
   6  -2   3   22.10    3.80
  -6  -2  -3   27.10    3.50
   6   2   3   16.10    2.80
  -6   2  -3   26.00    4.00
   6   2   3   22.60    4.60
   6   2   3   25.70    4.00
  -6   2  -3   26.50    4.60
   6   2   3   26.70    3.80
  -6   2  -3   21.30    3.00
   6   2   3   22.70    3.60
   8  -2   3  103.59    6.70
   8  -2   3  111.09    8.20
   8  -2   3  107.69    8.80
   8  -2   3  109.49    7.90
   8  -2   3  115.79    7.50
  -8  -2  -3   84.59    9.10
  -8  -2  -3  119.79    7.50
  -8   2  -3  112.29    8.20
  -8   2  -3  100.79    7.20
   8   2   3  112.69    8.20
   8   2   3   98.09    7.80
  10  -2   3   43.00    8.20
  10  -2   3   56.89    8.00
  10  -2   3   69.69    9.70
  10  -2   3   48.30    5.70
 -10  -2  -3   67.99    7.10
  10   2   3   50.79    7.80
  10   2   3   49.30    8.20
  10   2   3   57.09    9.00
  12  -2   3   24.30    9.50
  12  -2   3   22.20    8.10
  12  -2   3    0.00    7.60
  12   2   3   19.10    8.30
  12   2   3   -1.60    9.40
  12   2   3    5.00    7.80
  13  -3  -3    0.30    5.80
  13  -3  -3    3.60    5.70
  13   3  -3   -0.40    4.70
  11  -3  -3    5.20    3.70
  11  -3  -3    8.00    4.00
  11   3  -3    8.40    3.60
  11   3  -3    3.40    3.50
  -9  -3   3  134.69    9.90
   9  -3  -3  143.39    8.50
   9  -3  -3  143.59    8.90
   9   3  -3  142.69    9.00
   9   3  -3  143.79    8.60
   9   3  -3  137.49    9.10
  -7  -3   3   11.60    2.50
   7  -3  -3   13.10    2.60
  -7  -3   3   14.10    2.30
   7  -3  -3   12.90    2.30
  -7   3   3    7.90    2.40
   7   3  -3   13.30    2.30
   7   3  -3   14.50    1.90
  -7   3   3   15.50    3.00
   7   3  -3   10.50    2.40
   7   3  -3   14.80    2.70
  -7   3   3   16.10    2.60
   7   3  -3   15.30    2.50
  -5  -3   3  115.79    6.80
   5  -3  -3  116.49    6.90
  -5  -3   3  111.99    6.10
   5  -3  -3  115.99    6.30
   5  -3  -3  115.19    6.80
  -5   3   3  124.59    7.20
  -5   3   3  110.49    7.10
  -5   3   3  113.79    6.90
   5   3  -3  113.29    6.90
   5   3  -3  108.69    6.70
  -5   3   3  116.99    6.30
   5   3  -3  115.29    6.20
   5   3  -3  115.59    6.80
   5   3  -3  122.59    7.10
   5   3  -3  117.39    6.50
   5   3  -3  105.19    7.10
  -5   3   3  112.09    6.30
  -5   3   3  108.19    6.50
   3  -3  -3    7.00    1.70
   3  -3  -3    7.10    1.90
  -3  -3   3    5.80    1.20
   3  -3  -3    8.10    2.00
  -3  -3   3    5.90    1.40
  -3   3   3   10.70    2.30
  -3   3   3    6.90    1.50
   3   3  -3    6.20    1.50
   3   3  -3    5.90    1.50
  -3   3   3    7.50    1.50
   3   3  -3    7.90    1.70
  -3   3   3    9.80    2.10
  -3   3   3    6.10    1.40
   3   3  -3   12.00    2.00
   1  -3  -3 1004.00   51.09
  -1  -3   3 1058.09   50.49
  -1  -3   3 1063.39   50.69
   1  -3  -3 1172.78   51.39
   1  -3  -3 1083.49   50.89
  -1  -3   3  974.20   50.99
  -1  -3   3 1036.60   50.89
   1  -3  -3 1135.39   51.09
  -1  -3   3 1103.39   50.49
  -1   3   3 1094.99   51.09
   1   3  -3 1056.49   50.89
  -1   3   3 1065.09   51.19
  -1   3   3 1061.99   50.79
   1   3  -3 1076.59   50.59
  -1   3   3 1056.59   50.89
  -1   3   3 1086.99   50.59
   1   3  -3 1148.49   50.39
   1   3  -3 1031.70   50.79
   1   3  -3 1227.08   51.09
  -1  -3  -3   32.10    3.70
   1  -3   3   24.80    3.40
  -1  -3  -3   27.80    2.90
  -1  -3  -3   36.10    3.60
  -1  -3  -3   27.70    2.40
   1  -3   3   30.50    2.80
   1  -3   3   29.30    2.60
   1  -3   3   29.90    3.70
  -1  -3  -3   29.70    3.20
   1  -3   3   28.90    3.00
   1   3   3   28.80    3.10
   1   3   3   27.70    2.80
  -1   3  -3   33.00    3.20
   1   3   3   25.00    3.40
  -1   3  -3   33.60    2.70
   1   3   3   30.80    3.50
   1   3   3   29.00    3.10
  -1   3  -3   29.10    3.30
  -1   3  -3   27.80    2.50
  -1   3  -3   27.30    2.60
   3  -3   3   24.30    3.20
  -3  -3  -3   23.40    2.80
   3  -3   3   25.40    3.00
   3  -3   3   24.90    3.90
  -3  -3  -3   29.20    3.60
  -3  -3  -3   24.70    4.00
  -3  -3  -3   23.20    3.50
   3  -3   3   30.10    3.90
   3  -3   3   24.30    2.80
  -3   3  -3   24.10    2.30
  -3   3  -3   22.30    2.90
   3   3   3   23.90    3.90
   3   3   3   29.00    3.60
  -3   3  -3   21.50    3.30
   3   3   3   18.30    3.40
  -3   3  -3   30.90    3.90
   3   3   3   22.30    2.80
   3   3   3   28.60    2.60
  -5  -3  -3   20.30    3.60
  -5  -3  -3   14.90    3.10
   5  -3   3   20.40    4.30
  -5  -3  -3   18.50    3.40
   5  -3   3   21.30    3.80
   5  -3   3   23.00    4.60
   5  -3   3   23.30    3.40
   5  -3   3   17.50    2.50
   5   3   3   15.80    2.90
  -5   3  -3   26.40    3.80
  -5   3  -3   14.90    2.90
  -5   3  -3   14.50    3.60
   5   3   3   13.90    2.80
   5   3   3   16.70    3.30
   5   3   3   13.10    3.10
   5   3   3   16.30    2.90
  -7  -3  -3    6.70    2.90
  -7  -3  -3    7.30    3.30
   7  -3   3    8.80    3.50
   7  -3   3    5.90    2.60
  -7  -3  -3    1.70    4.30
   7  -3   3    4.40    4.10
   7   3   3    4.00    3.10
  -7   3  -3   11.80    3.50
  -7   3  -3   -1.00    3.00
   7   3   3    2.80    3.00
   7   3   3    4.30    2.40
  -7   3  -3    8.10    3.80
   9  -3   3   53.99    8.50
   9  -3   3   58.99    6.40
  -9  -3  -3   59.39    7.30
   9  -3   3   45.60    8.00
   9  -3   3   59.59    9.40
   9  -3   3   44.80    7.20
   9   3   3   43.80    8.70
   9   3   3   43.00    6.10
  -9   3  -3   51.89    6.00
   9   3   3   35.60    6.90
   9   3   3   50.19    8.00
  -9   3  -3   49.90    6.40
  11  -3   3   -2.00    6.10
  11  -3   3   -8.30    6.70
  11  -3   3   11.70    7.80
  11  -3   3    5.20    6.70
  11   3   3    2.40    6.80
  11   3   3    8.40    7.50
  11   3   3    9.50    6.50
  12  -4  -3    8.20    6.00
  12   4  -3    6.60    5.90
  12   4  -3    6.10    4.90
  10  -4  -3   27.10    4.90
 -10  -4   3   19.80    4.90
  10   4  -3   21.00    4.40
  10   4  -3   16.70    4.70
 -10   4   3   15.60    5.60
  -8  -4   3   88.79    7.70
   8  -4  -3   76.89    7.00
  -8   4   3   91.39    7.20
  -8   4   3   92.29    7.40
   8   4  -3   77.89    6.80
   8   4  -3   72.79    5.30
   8   4  -3   79.79    6.70
   8   4  -3   85.89    7.40
  -6  -4   3   53.09    5.10
   6  -4  -3   56.99    4.50
  -6  -4   3   50.89    4.00
   6  -4  -3   50.09    5.20
  -6   4   3   50.19    5.60
  -6   4   3   51.39    5.70
   6   4  -3   59.39    5.40
   6   4  -3   53.89    4.60
   6   4  -3   55.49    5.20
   6   4  -3   53.69    5.90
  -6   4   3   48.40    4.40
  -6   4   3   50.39    4.40
   6   4  -3   54.69    5.60
   6   4  -3   51.99    5.20
  -6   4   3   60.79    5.90
   6   4  -3   54.89    5.20
  -6   4   3   52.19    4.70
   6   4  -3   56.69    4.10
   6   4  -3   51.09    4.90
   4  -4  -3   79.99    5.10
   4  -4  -3   70.89    5.70
  -4  -4   3   71.89    4.50
   4  -4  -3   69.19    5.40
  -4  -4   3   70.79    5.40
   4   4  -3   73.29    5.20
   4   4  -3   71.19    6.30
   4   4  -3   68.49    5.60
  -4   4   3   73.79    6.20
  -4   4   3   88.49    6.50
  -4   4   3   80.09    6.10
  -4   4   3   68.69    5.20
   4   4  -3   70.49    5.40
   4   4  -3   69.69    6.00
  -4   4   3   72.69    5.30
   4   4  -3   72.19    4.70
   4   4  -3   77.89    6.60
  -4   4   3   72.29    5.20
  -4   4   3   69.29    6.10
   4   4  -3   69.99    5.60
   2  -4  -3   54.09    5.30
   2  -4  -3   41.60    5.20
   2  -4  -3   49.20    4.00
  -2  -4   3   45.10    4.10
   2  -4  -3   45.30    4.40
  -2  -4   3   45.30    4.00
   2   4  -3   44.40    3.60
  -2   4   3   46.40    4.10
  -2   4   3   48.20    5.00
   2   4  -3   47.20    4.20
   2   4  -3   47.20    4.50
   2   4  -3   43.00    3.90
  -2   4   3   49.80    3.70
  -2   4   3   49.70    5.00
  -2   4   3   49.40    4.30
   2   4  -3   45.50    4.00
   2   4  -3   44.30    4.50
   0  -4  -3  104.49    8.10
   0  -4  -3   91.59    6.50
   0  -4  -3   91.89    5.60
   0  -4   3   85.49    6.10
   0  -4  -3  104.79    7.40
   0  -4   3   92.99    5.80
   0  -4   3  105.79    7.10
   0  -4   3   93.29    6.10
   0  -4   3   91.09    6.80
   0  -4  -3   98.69    6.40
   0   4   3   98.79    6.90
   0   4   3   81.99    6.30
   0   4  -3   99.79    6.20
   0   4   3  101.89    6.10
   0   4   3   92.99    6.20
   0   4   3  112.19    7.10
   0   4  -3   97.39    5.90
   0   4  -3   99.09    6.50
   0   4  -3   97.49    6.60
   0   4  -3  112.49    6.90
   2  -4   3  162.08    8.70
   2  -4   3  160.78    9.70
   2  -4   3  145.99    8.40
  -2  -4  -3  143.39    8.30
  -2  -4  -3  144.19    9.00
   2  -4   3  160.58    9.10
  -2  -4  -3  150.88   10.00
  -2  -4  -3  148.09    9.20
   2  -4   3  139.89    9.40
   2   4   3  156.28    9.10
   2   4   3  144.09    8.70
  -2   4  -3  159.08    9.10
   2   4   3  146.29    9.40
  -2   4  -3  159.08    8.40
  -2   4  -3  153.98    8.40
   2   4   3  152.08    8.90
   2   4   3  142.79    9.30
  -2   4  -3  165.78    9.20
  -4  -4  -3   24.00    4.20
   4  -4   3   16.90    4.10
   4  -4   3   17.30    3.20
   4  -4   3   23.50    3.10
   4  -4   3   19.20    3.60
   4  -4   3   18.70    3.10
  -4  -4  -3   20.10    3.10
  -4  -4  -3   16.30    4.00
  -4  -4  -3   14.40    3.40
   4   4   3   17.70    3.70
   4   4   3   17.50    2.90
  -4   4  -3   19.90    3.90
  -4   4  -3   20.60    3.00
   4   4   3   15.30    3.30
  -4   4  -3   20.10    3.00
  -4   4  -3   17.70    3.60
  -4   4  -3   19.30    3.20
   4   4   3   20.10    3.80
  -6  -4  -3    0.40    4.50
  -6  -4  -3    8.70    4.70
   6  -4   3    8.60    5.30
   6  -4   3    4.50    2.80
   6  -4   3    6.40    4.40
   6  -4   3    1.30    5.00
   6  -4   3    3.60    3.00
  -6  -4  -3    7.30    3.50
  -6  -4  -3   -0.60    5.10
  -6   4  -3    8.50    3.70
  -6   4  -3   15.70    3.70
  -6   4  -3    6.20    4.40
   6   4   3    8.30    3.70
   6   4   3    4.10    4.50
   6   4   3    4.70    3.80
   6   4   3    6.50    2.90
   6   4   3    9.10    2.80
   8  -4   3   44.50    8.90
  -8  -4  -3   54.39    8.40
   8  -4   3   41.60    7.90
   8  -4   3   59.39    7.00
   8  -4   3   45.70    9.20
   8  -4   3   52.49    7.30
  -8   4  -3   40.50    6.30
   8   4   3   54.29    8.60
   8   4   3   45.80    6.30
   8   4   3   47.80    6.50
   8   4   3   46.80    9.20
  -8   4  -3   67.19    7.90
  10  -4   3   26.10    7.10
  10  -4   3   35.40    8.40
  10  -4   3   26.30    6.70
  10  -4   3   31.10    8.50
  10   4   3   21.40    7.50
  10   4   3   18.80    7.90
  10   4   3   30.60    6.70
  11  -5  -3    9.10    6.50
  11   5  -3    7.60    6.80
  11   5  -3    5.30    5.80
   9  -5  -3   71.99    8.70
  -9  -5   3   86.19    9.10
   9   5  -3   67.79    9.20
   9   5  -3   57.59    9.10
   9   5  -3   60.59    8.50
  -9   5   3   72.19    9.10
  -9   5   3   86.79    9.70
   9   5  -3   80.09    8.20
   9   5  -3   74.89   10.00
   9   5  -3   64.09    8.80
  -7  -5   3   14.40    4.00
   7  -5  -3    9.10    3.70
   7  -5  -3   11.60    2.90
  -7  -5   3   14.40    3.80
  -7   5   3    5.10    3.00
   7   5  -3    6.90    4.80
  -7   5   3    3.20    3.80
  -7   5   3    8.50    4.60
   7   5  -3    3.00    3.90
  -7   5   3    9.10    4.50
   7   5  -3    6.30    4.50
   7   5  -3    3.40    3.40
   7   5  -3   -0.10    3.60
  -7   5   3    8.90    4.30
   7   5  -3    4.40    3.60
   7   5  -3    7.50    4.30
   7   5  -3    1.80    4.20
  -7   5   3    4.30    3.00
   5  -5  -3   35.20    5.40
  -5  -5   3   23.60    4.00
   5  -5  -3   36.40    5.40
   5   5  -3   29.30    4.90
  -5   5   3   38.30    4.90
   5   5  -3   42.00    5.60
  -5   5   3   41.30    6.60
  -5   5   3   28.60    5.00
  -5   5   3   38.50    6.60
   5   5  -3   31.20    5.70
   5   5  -3   33.70    6.80
   5   5  -3   36.10    5.20
  -5   5   3   36.40    6.90
   5   5  -3   41.40    6.80
  -5   5   3   39.70    5.40
   5   5  -3   29.30    5.20
   3  -5  -3   -0.90    2.80
   3  -5  -3    0.00    2.40
  -3  -5   3    1.50    2.10
  -3  -5   3    4.10    2.00
   3  -5  -3    0.90    2.40
  -3   5   3   -2.20    3.80
  -3   5   3   -3.40    3.30
   3   5  -3    5.10    3.00
  -3   5   3   -4.10    2.70
   3   5  -3   -1.50    1.80
  -3   5   3   -0.90    3.20
   3   5  -3    0.30    2.20
   3   5  -3   -5.70    3.40
   3   5  -3    4.80    3.70
   3   5  -3    0.10    2.40
   3   5  -3    2.20    3.40
   3   5  -3   -4.60    2.60
  -3   5   3    3.70    2.60
  -3   5   3   -0.70    2.60
   1  -5  -3  335.87   17.40
   1  -5  -3  336.07   18.60
  -1  -5   3  342.87   16.80
   1  -5  -3  329.57   16.60
   1  -5  -3  339.77   18.40
  -1   5   3  322.97   18.00
   1   5  -3  344.27   18.40
   1   5  -3  346.77   17.40
   1   5  -3  338.17   17.90
   1   5  -3  365.16   18.00
  -1   5   3  340.67   17.10
   1   5  -3  319.47   18.10
  -1   5   3  321.07   17.40
  -1   5   3  299.17   17.90
  -1   5   3  333.07   17.20
   1   5  -3  359.36   16.90
  -1   5   3  294.87   17.40
   1   5  -3  307.57   17.50
   1  -5   3   12.00    2.90
  -1  -5  -3   10.10    4.00
  -1  -5  -3   16.20    2.70
   1  -5   3   16.70    3.80
   1  -5   3    9.60    4.20
  -1  -5  -3   12.70    3.60
  -1  -5  -3    8.50    2.50
  -1  -5  -3   16.00    4.30
   1   5   3   14.80    3.40
  -1   5  -3   11.10    3.80
   1   5   3    8.80    3.70
  -1   5  -3   10.70    2.80
   1   5   3   11.30    3.20
  -1   5  -3   17.80    3.10
   1   5   3   12.80    2.70
   1   5   3   12.30    3.70
   3  -5   3    8.70    4.10
  -3  -5  -3   10.40    2.50
   3  -5   3   15.90    4.60
   3  -5   3   13.30    5.90
  -3  -5  -3   10.20    3.40
   3  -5   3   12.20    3.00
  -3  -5  -3    8.10    4.30
   3  -5   3   12.80    3.20
  -3  -5  -3   14.30    3.10
  -3  -5  -3    9.70    4.40
   3   5   3   12.00    4.00
   3   5   3   11.70    3.80
  -3   5  -3   12.10    2.80
  -3   5  -3   10.40    3.10
  -3   5  -3   18.00    4.10
   3   5   3    8.60    4.90
  -3   5  -3    7.70    4.10
   5  -5   3    2.50    3.70
   5  -5   3    3.90    3.40
  -5  -5  -3    0.30    4.40
  -5  -5  -3   -0.20    3.10
   5  -5   3    1.40    4.30
  -5  -5  -3    6.30    5.80
   5  -5   3    9.80    3.50
  -5  -5  -3   -2.70    5.40
  -5   5  -3    6.80    3.90
  -5   5  -3    3.90    2.40
  -5   5  -3    6.90    3.70
  -5   5  -3   12.70    4.00
   5   5   3    3.20    4.40
   5   5   3    0.90    4.10
  -5   5  -3    2.60    4.60
   5   5   3    4.40    4.60
   5   5   3    2.70    3.20
  -5   5  -3    1.10    5.00
   7  -5   3    3.20    4.70
   7  -5   3   -5.10    5.70
   7  -5   3    6.30    6.00
   7  -5   3    4.30    4.20
  -7   5  -3    0.50    4.20
   7   5   3    3.00    5.60
   7   5   3   -1.90    5.30
  -7   5  -3    1.30    5.30
   7   5   3    2.60    3.90
   7   5   3    6.00    5.10
   9  -5   3   49.90    9.40
   9  -5   3   32.00    7.90
   9  -5   3   31.30    9.50
   9  -5   3   30.60    6.90
   9   5   3   17.00    5.90
   9   5   3   22.90    8.20
   9   5   3   11.90    8.60
  -9   5  -3   32.60    6.70
  10  -6  -3   18.10    7.50
  10   6  -3   11.10    8.30
  10   6  -3    2.90    8.10
  10   6  -3   20.50   11.00
  10   6  -3   10.00    7.30
   8  -6  -3   31.00    4.80
  -8  -6   3   42.30    7.00
  -8  -6   3   32.20    4.60
   8  -6  -3   53.99    9.20
   8   6  -3   18.80   10.60
  -8   6   3   34.30    7.70
  -8   6   3   27.60    5.10
   8   6  -3   32.20    6.90
   8   6  -3   40.60    7.60
   8   6  -3   26.50    6.00
   8   6  -3   31.60    6.90
   6  -6  -3   25.90    4.10
   6  -6  -3   21.00    4.90
  -6  -6   3   17.80    4.80
   6   6  -3   19.90    5.60
   6   6  -3   11.60    5.70
   6   6  -3   18.80    5.30
  -6   6   3   17.60    6.20
   6   6  -3   16.10    5.00
  -6   6   3   19.30    5.00
   6   6  -3   20.40    5.70
   6   6  -3   18.60    4.10
  -6   6   3   18.50    4.40
   6   6  -3   25.70    6.70
  -6   6   3   17.50    6.10
   4  -6  -3   17.00    3.90
  -4  -6   3    9.60    3.90
   4  -6  -3   16.50    4.20
  -4   6   3   16.60    5.70
   4   6  -3   12.90    5.20
  -4   6   3   12.10    5.80
   4   6  -3   16.30    5.10
  -4   6   3   11.20    4.40
  -4   6   3    1.90    4.60
   4   6  -3    9.60    4.60
   4   6  -3    8.80    4.10
  -4   6   3   18.70    5.50
  -4   6   3   14.30    5.60
   4   6  -3    3.90    5.40
   4   6  -3   10.10    3.60
   4   6  -3   11.30    4.40
   4   6  -3   19.60    5.00
  -2  -6   3   15.40    3.80
  -2  -6   3   22.20    3.40
   2  -6  -3   16.80    3.40
   2  -6  -3   10.00    3.50
  -2   6   3   17.70    4.20
  -2   6   3   14.90    5.10
  -2   6   3   18.60    6.10
   2   6  -3   13.90    3.70
   2   6  -3    9.60    3.60
   2   6  -3   16.50    4.60
   2   6  -3   20.10    4.90
  -2   6   3   15.10    4.90
  -2   6   3   12.80    6.00
  -2   6   3   22.50    4.50
   2   6  -3   24.90    5.50
   2   6  -3   15.60    5.40
   2   6  -3   17.80    4.30
  -2   6   3    9.70    3.20
  -2   6   3   17.70    3.90
   0  -6  -3   21.40    3.60
   0  -6  -3   31.30    5.80
   0   6  -3   20.20    4.90
   0   6  -3   22.40    3.90
   0   6  -3   24.70    5.60
   0   6   3   21.30    5.10
   0   6  -3   15.70    3.70
   0   6  -3   10.30    4.70
   0   6   3   20.30    4.40
   0   6   3   29.70    6.60
   0   6  -3   21.90    5.90
   0   6  -3   18.70    5.70
   0   6  -3   24.60    4.90
   0   6   3   25.40    7.00
   0   6   3   23.40    6.10
   0   6   3   12.20    4.70
   0   6   3   20.40    5.50
   2  -6   3   71.69    6.70
   2  -6   3   62.29    7.10
  -2  -6  -3   46.30   10.00
  -2  -6  -3   69.59   11.10
  -2  -6  -3   50.19    5.80
  -2  -6  -3   56.09    7.50
  -2  -6  -3   54.59    6.20
  -2   6  -3   67.29    9.00
  -2   6  -3   56.29    7.10
   2   6   3   77.89    7.90
  -2   6  -3   63.39    6.10
  -2   6  -3   60.99    9.20
   2   6   3   60.29    8.50
  -2   6  -3   62.09    6.90
  -2   6  -3   78.69   10.20
  -2   6  -3   71.49    8.40
   2   6   3   65.69    6.40
   2   6   3   60.49    8.40
   2   6   3   41.60    8.30
   4  -6   3    6.20    4.10
   4  -6   3    3.90    6.60
  -4  -6  -3    7.20    4.50
   4  -6   3   13.10    4.70
  -4  -6  -3   -1.60    3.10
  -4   6  -3    7.30    5.30
   4   6   3   -2.40    5.60
   4   6   3    5.00    3.40
   4   6   3    4.90    5.00
   4   6   3    8.10    5.50
  -4   6  -3    2.20    6.60
  -4   6  -3    8.30    4.30
  -4   6  -3    6.90    3.10
  -4   6  -3    8.20    6.30
   6  -6   3   -9.00    5.40
  -6  -6  -3   -7.20    4.60
   6  -6   3    6.10    7.10
   6  -6   3   -4.50    7.80
  -6   6  -3    8.20    5.20
   6   6   3   -0.40    5.00
   6   6   3    6.10    6.30
   6   6   3    3.60    6.60
  -6   6  -3    9.60    8.50
   8  -6   3   18.20   11.10
   8  -6   3   25.00    7.80
   8  -6   3   29.60    8.80
   8   6   3   14.60    9.60
   8   6   3   42.40   10.10
  -8   6  -3   23.10    7.70
   8   6   3   31.50    9.00
  -8   6  -3   34.80   12.20
   8   6   3   12.70    7.10
  -7  -7   3   11.90    7.20
   7  -7  -3   15.80    7.10
   7   7  -3  -14.50    8.90
  -7   7   3   -4.50    9.10
  -7   7   3   -3.30    6.00
   7   7  -3   17.30    8.00
   7   7  -3   -2.20    6.50
  -5  -7   3    7.00    5.00
  -5  -7   3   12.00    5.80
   5  -7  -3   -6.10    5.30
   5  -7  -3    6.30    5.90
  -5   7   3   10.40    7.40
   5   7  -3    1.80    6.80
  -5   7   3   13.00    7.20
  -5   7   3    2.80    7.90
  -5   7   3    0.80    5.30
   5   7  -3   12.90    5.00
   5   7  -3   -7.80    8.50
   5   7  -3   13.70    6.90
   5   7  -3    9.00    7.90
  -3  -7   3   11.10    5.20
   3  -7  -3    2.20    4.30
  -3   7   3    1.30    6.70
  -3   7   3   -5.70    6.60
   3   7  -3   -5.40    5.50
   3   7  -3    2.60    7.20
   3   7  -3    2.20    4.30
   3   7  -3   -6.00    6.60
   3   7  -3   -3.60    7.10
   3   7  -3   -0.90    8.00
  -1  -7   3  138.19   10.30
   1  -7  -3  124.29    9.50
   1   7  -3  119.39   13.50
  -1   7   3  123.99   13.50
  -1   7   3  113.69   13.20
   1   7  -3   96.49   12.80
  -1   7   3  105.39    9.50
   1   7  -3  121.69    9.80
   1   7  -3   87.19   13.30
  -1   7   3  115.69   10.60
  -1  -7  -3    1.70    4.50
  -1  -7  -3   -1.10    4.20
  -1   7  -3    4.60    4.40
   1   7   3   13.20    4.80
   1   7   3    8.70    9.40
   1   7   3    9.50    7.00
  -1   7  -3   15.20    7.60
  -1   7  -3   23.40    7.50
  -1   7  -3    3.10    4.90
   1   7   3    9.90    5.70
  -1   7  -3  -10.00    7.00
   1   7   3    6.20    6.80
   3  -7   3    0.50    5.40
  -3  -7  -3   -4.10    4.90
  -3  -7  -3   -0.80    4.90
   3   7   3    3.50    7.30
   3   7   3   -3.40    4.40
  -3   7  -3   10.90    8.50
  -3   7  -3    4.30    5.60
   3   7   3    4.60   10.10
   3   7   3    8.90    6.10
   3   7   3   -2.70    7.00
  -3   7  -3    4.00    5.70
  -5  -7  -3    0.10    6.40
   5  -7   3    1.50    6.80
  -5   7  -3  -17.40   11.00
   5   7   3   -8.00    7.70
  -5   7  -3  -13.50    6.60
   5   7   3   -8.10    5.00
   5   7   3    3.30    9.00
   5   7   3   -6.50    8.70
  -5   7  -3    7.10   10.10
  -2  -8   3    0.70    7.60
   2  -8  -3    5.90    6.40
   2   8  -3    2.10    9.10
  -2   8   3   -4.00    7.20
   2   8  -3   25.30   10.40
   2   8  -3   17.00    6.20
   2   8  -3   -0.80   10.20
  -2   8   3   24.20   11.00
  -2   8   3    8.60   10.00
   0  -8   3    9.50    7.20
   0  -8  -3   24.00    6.60
   0   8  -3   10.50   11.80
   0   8  -3   15.10    6.30
   0   8  -3   -7.40   11.10
   0   8   3   19.00   10.00
   0   8   3    5.10    9.80
   0   8   3    3.30    6.70
   0   8  -3   13.30    8.90
   0   8   3   13.50    7.20
  14   0  -4  174.48   12.60
  12   0  -4   24.80    3.60
  12   0  -4   13.50    4.60
  12   0  -4   16.40    3.00
  10   0  -4  129.09    8.20
  10   0  -4  127.09    7.60
  10   0  -4  127.59    7.60
  10   0  -4  128.69    7.10
   8   0  -4   21.90    3.00
   8   0  -4   23.00    2.60
   8   0  -4   25.40    2.80
   8   0  -4   28.40    2.50
   6   0  -4    3.30    1.20
   6   0  -4    3.80    1.10
   4   0  -4    0.30    0.70
   4   0  -4    0.50    0.60
   4   0  -4   -0.20    0.80
   4   0  -4   -0.20    0.50
  -4   0   4   -0.30    0.60
   2   0  -4 1450.55   69.59
  -2   0   4 1409.16   69.49
  -2   0   4 1615.44   69.69
   2   0  -4 1552.64   69.69
   2   0  -4 1507.45   69.69
   2   0  -4 1472.45   69.59
   0   0  -4  554.04   25.70
   0   0   4  543.95   25.40
   0   0  -4  532.95   25.70
   0   0   4  512.25   25.60
   0   0   4  516.65   25.70
   0   0  -4  525.25   25.70
   0   0  -4  549.85   25.40
   0   0   4  581.94   25.70
   2   0   4  237.18   12.10
  -2   0  -4  254.37   12.10
  -2   0  -4  238.38   11.90
   2   0   4  236.78   12.00
  -2   0  -4  232.28   11.40
  -2   0  -4  209.48   11.90
   2   0   4  232.08   11.30
   2   0   4  234.58   12.00
  -4   0  -4  111.69    6.50
   4   0   4   91.69    6.40
   4   0   4  100.89    6.40
  -4   0  -4  101.69    6.10
  -4   0  -4   94.79    5.60
  -4   0  -4  101.19    5.40
   4   0   4  107.49    6.60
  -4   0  -4   96.69    6.70
   4   0   4  104.49    5.30
   6   0   4   70.69    5.90
  -6   0  -4   91.89    6.00
  -6   0  -4   57.89    7.90
   6   0   4   80.39    6.30
  -6   0  -4   77.59    5.10
   6   0   4   86.29    6.10
  -6   0  -4   78.49    6.20
   6   0   4   75.79    5.70
   8   0   4   86.79    6.60
  -8   0  -4   79.09    6.70
  -8   0  -4   72.59    7.40
  -8   0  -4   78.59    5.60
   8   0   4   78.69    7.30
   8   0   4   74.29    6.70
  -8   0  -4   95.09    8.20
   8   0   4   76.89    7.20
  10   0   4   15.90    5.80
  10   0   4   12.60    5.00
  10   0   4   16.30    4.70
  10   0   4   15.50    5.10
  13  -1  -4    7.90    3.50
  13  -1  -4    3.30    4.70
  13   1  -4    4.50    3.40
  13   1  -4   -1.90    4.00
  11  -1  -4    6.00    3.20
  11  -1  -4    6.80    3.30
  11   1  -4    6.80    2.00
  11   1  -4   10.80    2.80
  11   1  -4    4.40    2.70
   9  -1  -4   10.90    2.40
   9  -1  -4   12.00    2.00
   9  -1  -4    9.70    2.30
   9   1  -4   12.40    2.80
   9   1  -4   10.50    1.80
   9   1  -4   11.40    2.30
   9   1  -4   10.70    2.10
   7  -1  -4  211.58   10.70
   7  -1  -4  217.18   10.90
   7   1  -4  219.88   11.10
   7   1  -4  202.68   10.50
   7   1  -4  207.38   11.10
   5  -1  -4   17.80    1.80
  -5  -1   4   20.90    2.20
   5  -1  -4   21.10    1.70
   5   1  -4   19.30    1.80
   5   1  -4   18.20    2.00
  -5   1   4   19.40    1.70
   3  -1  -4    7.80    1.40
  -3  -1   4    4.40    1.60
  -3  -1   4    6.70    1.40
   3  -1  -4    7.20    1.10
  -3  -1   4    6.40    1.10
  -3  -1   4    7.90    1.20
   3  -1  -4   10.00    1.60
  -3   1   4    6.80    1.20
   3   1  -4    6.00    1.10
  -3   1   4    7.80    1.30
   3   1  -4    8.80    1.50
   3   1  -4    5.60    1.10
   3   1  -4    7.70    1.30
  -1  -1   4   70.29    3.80
  -1  -1   4   62.79    4.00
   1  -1  -4   62.69    4.10
   1  -1  -4   61.49    3.70
   1  -1  -4   60.49    4.20
   1  -1  -4   62.79    3.90
  -1  -1   4   68.39    3.90
   1   1  -4   68.19    3.80
   1   1  -4   69.69    4.10
  -1   1   4   64.29    3.90
   1   1  -4   67.59    4.00
  -1   1   4   63.59    4.10
  -1   1   4   68.59    4.10
   1  -1   4  143.59    7.10
  -1  -1  -4  148.99    7.40
   1  -1   4  133.39    7.00
  -1  -1  -4  145.79    7.70
  -1  -1  -4  140.99    7.00
   1  -1   4  119.79    7.60
  -1  -1  -4  136.89    7.70
   1  -1   4  132.39    7.60
   1  -1   4  146.89    7.60
  -1  -1  -4  144.29    7.60
   1   1   4  130.59    7.50
   1   1   4  127.59    7.50
  -1   1  -4  152.98    7.70
  -1   1  -4  138.49    7.10
   1   1   4  126.89    7.60
  -1   1  -4  151.98    7.60
  -1   1  -4  144.19    7.60
  -3  -1  -4  196.98    9.60
  -3  -1  -4  199.78   10.60
  -3  -1  -4  195.48   10.50
  -3  -1  -4  203.28   10.20
   3  -1   4  202.38    9.80
  -3  -1  -4  181.58   10.60
   3  -1   4  187.78   10.40
   3  -1   4  207.98   10.70
   3  -1   4  177.68   10.50
   3  -1   4  187.88    9.90
   3   1   4  205.18   10.60
  -3   1  -4  190.78    9.80
  -3   1  -4  204.68   10.40
  -3   1  -4  207.38   10.60
   3   1   4  208.48   10.60
   3   1   4  186.98   10.40
  -3   1  -4  196.28   10.40
   3   1   4  202.98   10.00
   5  -1   4    1.00    2.00
   5  -1   4    2.50    1.20
  -5  -1  -4    1.30    2.70
  -5  -1  -4    0.30    1.70
   5  -1   4    1.90    1.50
  -5  -1  -4    4.40    2.40
  -5  -1  -4    2.20    1.70
   5  -1   4    1.80    1.90
   5  -1   4    0.00    2.50
   5   1   4   -0.20    2.30
   5   1   4   -1.30    1.60
  -5   1  -4    2.30    1.20
  -5   1  -4    0.70    1.70
   5   1   4   -1.70    1.70
   5   1   4    1.40    2.10
  -5   1  -4    0.20    1.10
  -5   1  -4    2.00    2.30
   7  -1   4   78.09    5.00
  -7  -1  -4   84.09    5.90
   7  -1   4   79.49    6.90
   7  -1   4   86.39    7.20
   7  -1   4   77.79    6.10
   7  -1   4   85.59    6.90
  -7  -1  -4   86.89    7.20
  -7  -1  -4   79.99    6.40
  -7   1  -4   70.89    6.90
   7   1   4   75.79    7.30
   7   1   4   81.09    6.80
   7   1   4   78.69    6.80
  -7   1  -4   75.49    6.20
   7   1   4   75.99    6.30
  -9  -1  -4  109.69   10.10
  -9  -1  -4   87.09    7.70
   9  -1   4   93.59    8.00
   9  -1   4  103.09    9.50
   9  -1   4  114.79    9.10
  -9  -1  -4  104.29    9.10
   9   1   4   94.69    9.90
   9   1   4   88.99    8.50
  -9   1  -4   88.89    7.70
  -9   1  -4  105.29    9.90
   9   1   4   93.29    9.20
   9   1   4   98.29    9.40
   9   1   4   99.19    8.70
  11  -1   4   12.20    6.90
  11  -1   4   14.50    5.60
  11  -1   4   -7.10    6.50
  11  -1   4  -12.20    6.10
  11   1   4    0.40    6.60
  11   1   4   -3.00    6.30
  11   1   4   12.10    5.70
  14  -2  -4  122.89   12.50
  14   2  -4  128.99   10.70
  14   2  -4  135.69   11.70
  12  -2  -4   17.40    5.00
  12  -2  -4   17.50    4.30
  12   2  -4   10.70    3.90
  12   2  -4   14.30    3.70
  10  -2  -4  110.49    6.80
  10  -2  -4  120.59    7.70
  10  -2  -4  110.89    7.60
  10   2  -4  103.89    8.00
  10   2  -4  109.49    7.60
  10   2  -4  104.59    6.30
   8  -2  -4   20.20    2.90
   8  -2  -4   18.80    3.40
  -8  -2   4   21.20    3.40
   8   2  -4   20.10    2.50
   8   2  -4   23.10    3.30
   8   2  -4   19.00    2.90
  -6  -2   4    6.20    1.70
   6  -2  -4    9.40    1.60
  -6  -2   4    3.40    1.30
   6  -2  -4    2.90    1.50
   6   2  -4    6.50    1.40
   6   2  -4    7.20    2.10
   6   2  -4    7.00    1.30
   6   2  -4    4.40    1.50
  -6   2   4    7.00    1.60
  -6   2   4    5.60    1.50
  -6   2   4    6.90    1.70
   4  -2  -4   -1.40    1.00
  -4  -2   4   -0.50    1.00
  -4  -2   4    0.60    0.90
   4  -2  -4    1.90    1.30
   4  -2  -4   -0.60    1.20
   4  -2  -4    1.50    1.60
  -4   2   4    0.50    0.90
  -4   2   4    0.70    0.80
   4   2  -4    1.30    0.90
  -4   2   4   -1.00    1.30
   4   2  -4    1.40    1.20
   4   2  -4    0.30    1.10
  -4   2   4    1.20    1.00
   4   2  -4   -0.20    0.90
   4   2  -4    1.70    1.20
   2  -2  -4  926.01   44.50
  -2  -2   4  986.80   44.70
   2  -2  -4  976.40   44.80
   2  -2  -4  964.60   44.90
  -2  -2   4  901.61   44.50
   2  -2  -4  949.60   44.60
  -2  -2   4  909.41   44.30
  -2  -2   4  938.31   44.30
   2   2  -4  898.21   44.40
  -2   2   4  938.91   44.60
  -2   2   4  915.31   44.70
  -2   2   4  961.50   44.20
   2   2  -4  917.41   44.30
   2   2  -4  983.90   44.50
   2   2  -4 1038.80   44.60
  -2   2   4  941.91   44.40
   0  -2   4  346.47   16.70
   0  -2  -4  359.46   16.80
   0  -2   4  289.87   16.60
   0  -2   4  333.67   16.30
   0  -2  -4  323.17   16.90
   0  -2  -4  371.96   16.70
   0  -2   4  285.77   16.70
   0  -2  -4  334.37   17.00
   0  -2   4  343.97   16.20
   0   2   4  338.67   16.90
   0   2  -4  353.86   16.80
   0   2   4  345.97   16.70
   0   2  -4  335.57   16.70
   0   2  -4  344.37   16.10
   0   2   4  335.67   16.80
   0   2  -4  349.96   16.70
   0   2  -4  350.16   16.40
  -2  -2  -4  146.39    8.70
  -2  -2  -4  176.18    9.00
  -2  -2  -4  172.58    9.30
   2  -2   4  149.39    9.00
   2  -2   4  151.98    8.40
  -2  -2  -4  161.58    9.20
   2  -2   4  150.48    9.00
   2  -2   4  144.59    8.80
  -2  -2  -4  154.68    8.00
   2  -2   4  171.08    8.40
   2   2   4  166.68    9.00
  -2   2  -4  159.88    8.40
   2   2   4  162.48    9.00
   2   2   4  178.48    9.30
  -2   2  -4  187.48    9.20
   2   2   4  161.58    8.20
  -2   2  -4  164.28    8.80
  -2   2  -4  150.78    8.40
  -2   2  -4  174.48    8.90
  -4  -2  -4   75.99    5.70
   4  -2   4   69.79    5.50
  -4  -2  -4   66.19    4.90
   4  -2   4   61.39    5.50
  -4  -2  -4   69.69    5.20
   4  -2   4   64.19    4.30
   4  -2   4   61.29    4.50
   4  -2   4   69.59    5.20
  -4  -2  -4   61.89    5.60
   4   2   4   73.39    5.30
   4   2   4   63.89    5.20
   4   2   4   65.49    4.50
  -4   2  -4   70.79    5.20
   4   2   4   65.99    5.80
  -4   2  -4   58.09    4.20
  -4   2  -4   66.39    5.10
  -6  -2  -4   72.19    6.60
   6  -2   4   60.29    6.10
  -6  -2  -4   74.09    5.90
   6  -2   4   70.49    5.50
   6  -2   4   79.89    5.50
   6  -2   4   63.69    6.10
  -6  -2  -4   63.59    6.40
   6  -2   4   63.39    6.80
   6   2   4   73.49    5.60
  -6   2  -4   72.79    6.50
   6   2   4   66.99    6.00
   6   2   4   70.09    6.60
  -6   2  -4   60.69    5.80
   6   2   4   75.09    6.20
   8  -2   4   64.89    7.30
  -8  -2  -4   50.29    7.00
   8  -2   4   64.19    8.30
   8  -2   4   83.29    6.80
   8  -2   4   65.29    5.20
  -8  -2  -4   78.39    9.20
   8  -2   4   54.29    7.20
  -8  -2  -4   55.39    8.30
  -8  -2  -4   83.49    6.80
   8   2   4   73.89    8.00
  -8   2  -4   88.79    8.70
   8   2   4   59.79    7.10
   8   2   4   69.59    7.30
  -8   2  -4   63.69    8.20
  -8   2  -4   68.79    8.40
   8   2   4   71.59   11.00
  10  -2   4    6.60    3.60
  10  -2   4   14.30    6.60
  10  -2   4   14.60    5.80
  10  -2   4   13.70    6.00
  10  -2   4   26.80    5.40
  10   2   4   20.30    5.80
  10   2   4   22.50    6.00
  10   2   4   11.30    6.50
  13  -3  -4    6.10    5.40
  13   3  -4    4.10    5.50
  13   3  -4   11.00    4.60
  11  -3  -4    2.70    4.00
  11  -3  -4    5.60    3.80
  11   3  -4   -0.10    3.40
   9  -3  -4   12.50    3.20
  -9  -3   4   13.80    3.80
   9  -3  -4   11.70    2.20
   9   3  -4   10.50    3.30
   9   3  -4   17.00    2.90
   9   3  -4   19.20    3.10
   9   3  -4    7.60    2.90
  -9   3   4   11.60    3.40
   7  -3  -4  112.89    7.20
   7  -3  -4  118.19    6.60
  -7  -3   4  115.29    6.40
  -7  -3   4  114.09    7.30
   7  -3  -4  116.69    7.20
  -7   3   4  109.99    7.10
   7   3  -4  111.69    7.30
  -7   3   4  117.29    7.00
   7   3  -4  104.39    6.60
   7   3  -4  116.59    6.40
   7   3  -4  106.29    7.40
  -7   3   4  120.19    6.90
   5  -3  -4    8.40    2.50
  -5  -3   4    5.00    1.80
   5  -3  -4    9.90    2.30
   5  -3  -4    8.50    1.80
   5  -3  -4    4.80    1.90
   5  -3  -4    5.00    2.20
   5   3  -4    8.40    1.80
   5   3  -4    6.40    1.70
  -5   3   4    5.90    1.60
   5   3  -4    5.10    1.70
   5   3  -4    4.00    1.80
   5   3  -4    7.10    2.10
  -5   3   4    6.10    1.60
  -5   3   4    7.20    2.40
  -5   3   4    6.40    2.60
  -5   3   4    5.70    1.50
  -5   3   4    7.30    2.40
   5   3  -4    9.40    1.80
  -3  -3   4    1.30    1.60
   3  -3  -4    2.60    2.00
  -3  -3   4    1.30    1.80
  -3  -3   4    0.90    1.20
   3  -3  -4    2.90    1.90
   3  -3  -4    2.60    1.50
   3  -3  -4    4.70    1.60
  -3  -3   4    1.10    1.20
   3  -3  -4    4.20    1.40
  -3   3   4    0.70    1.80
   3   3  -4    1.70    1.20
   3   3  -4   -0.90    1.20
   3   3  -4    0.10    1.40
  -3   3   4    2.80    1.40
   3   3  -4    2.50    1.40
  -3   3   4    2.20    2.00
  -3   3   4    0.20    1.30
   3   3  -4    3.30    1.40
   3   3  -4    2.10    1.50
  -1  -3   4   30.00    3.30
   1  -3  -4   34.60    3.70
  -1  -3   4   32.50    3.70
   1  -3  -4   39.10    4.00
  -1  -3   4   33.90    2.70
   1  -3  -4   35.40    3.20
  -1  -3   4   32.70    3.70
  -1  -3   4   33.20    3.00
   1  -3  -4   30.10    4.10
   1   3  -4   36.30    2.90
   1   3  -4   37.10    3.20
  -1   3   4   34.10    3.70
   1   3  -4   29.60    3.60
  -1   3   4   33.40    3.20
  -1   3   4   38.40    3.80
   1   3  -4   40.30    3.50
  -1   3   4   36.50    3.20
   1   3  -4   37.40    2.90
   1  -3   4   70.59    5.00
   1  -3   4   72.39    4.60
   1  -3   4   65.59    5.50
  -1  -3  -4   67.39    5.90
  -1  -3  -4   65.99    5.50
  -1  -3  -4   68.69    4.20
   1  -3   4   66.89    5.50
  -1  -3  -4   74.39    5.80
   1   3   4   70.29    5.50
  -1   3  -4   66.09    5.40
  -1   3  -4   79.39    4.70
   1   3   4   69.99    5.10
  -1   3  -4   70.69    5.30
   1   3   4   69.89    5.50
  -1   3  -4   68.49    4.50
  -1   3  -4   76.89    4.50
  -3  -3  -4  118.39    7.30
   3  -3   4  104.09    7.50
   3  -3   4  112.39    7.50
  -3  -3  -4  103.19    6.90
   3  -3   4  100.69    6.90
  -3  -3  -4   99.29    5.50
   3  -3   4  102.99    6.40
   3  -3   4  109.39    6.20
  -3  -3  -4  107.19    7.70
  -3  -3  -4   97.29    7.60
   3   3   4  103.29    7.00
  -3   3  -4  105.39    6.90
  -3   3  -4  100.59    6.10
   3   3   4  103.49    7.20
   3   3   4  105.59    7.00
  -3   3  -4  107.29    7.00
  -3   3  -4  105.99    6.30
  -3   3  -4  100.09    7.50
   3   3   4  113.19    6.10
   5  -3   4    1.10    2.10
  -5  -3  -4    0.10    2.80
   5  -3   4    2.50    3.00
   5  -3   4    1.30    1.90
   5  -3   4    1.40    2.50
  -5  -3  -4   -0.50    2.60
   5  -3   4    5.40    3.30
   5   3   4   -3.10    2.60
  -5   3  -4    1.10    2.60
   5   3   4   -2.10    2.20
  -5   3  -4    0.20    3.30
  -5   3  -4   -0.10    1.40
   5   3   4    2.60    3.10
   5   3   4    3.00    2.70
  -7  -3  -4   46.90    8.70
   7  -3   4   57.99    5.50
  -7  -3  -4   62.89    9.30
   7  -3   4   58.89    6.90
   7  -3   4   54.59    6.30
   7  -3   4   55.49    7.70
  -7  -3  -4   70.99    7.20
   7   3   4   50.79    7.40
  -7   3  -4   64.09    8.30
  -7   3  -4   55.99    6.80
   7   3   4   54.79    7.80
  -7   3  -4   60.09    7.60
   7   3   4   60.39    6.90
   9  -3   4   72.19    9.90
   9  -3   4   76.89    7.40
   9  -3   4   66.99    8.50
  -9  -3  -4   62.59    9.30
   9  -3   4   69.09   11.70
   9  -3   4   88.39    9.50
   9   3   4   58.09    8.70
   9   3   4   61.59   10.60
  -9   3  -4   61.29    8.40
  12  -4  -4    9.20    6.20
  12   4  -4   15.20    5.50
  12   4  -4   10.00    6.00
  10  -4  -4   61.39    8.30
 -10  -4   4   77.69    8.20
  10   4  -4   60.19    7.50
  10   4  -4   74.59    7.90
  10   4  -4   73.69    7.00
 -10   4   4   78.99    9.30
   8  -4  -4   13.40    2.60
  -8  -4   4   10.00    2.80
  -8  -4   4   16.20    3.60
   8  -4  -4    2.80    3.10
   8   4  -4    7.90    3.30
   8   4  -4    6.00    3.30
   8   4  -4   10.90    3.20
   8   4  -4   11.30    3.10
  -8   4   4   11.50    3.90
   6  -4  -4    7.20    3.10
   6  -4  -4    9.60    2.70
   6  -4  -4   10.90    2.50
  -6  -4   4    9.70    2.20
  -6  -4   4    9.60    2.60
   6   4  -4    6.60    2.50
  -6   4   4    8.30    3.90
  -6   4   4    7.50    2.50
   6   4  -4    4.60    2.70
  -6   4   4    8.60    3.10
  -6   4   4    9.30    2.10
   6   4  -4   13.90    2.60
   6   4  -4    8.40    3.50
  -6   4   4    9.50    3.10
   6   4  -4   10.70    2.20
  -6   4   4    9.10    2.30
   6   4  -4   11.80    3.30
   6   4  -4   10.10    2.90
  -4  -4   4    2.00    1.70
   4  -4  -4    5.10    3.10
   4  -4  -4    1.00    2.30
   4  -4  -4    1.40    2.00
   4  -4  -4   -2.60    2.10
  -4  -4   4    2.70    1.90
   4  -4  -4    2.90    2.90
   4   4  -4   -1.40    2.30
  -4   4   4    1.70    3.10
  -4   4   4    4.70    2.00
  -4   4   4   -2.00    2.10
   4   4  -4    3.40    1.90
   4   4  -4    1.60    2.40
  -4   4   4   -0.30    2.10
   4   4  -4    1.50    2.00
  -4   4   4    2.50    2.80
   4   4  -4    0.10    2.00
   4   4  -4    2.60    3.10
   4   4  -4   -1.00    1.50
  -4   4   4    2.10    2.90
  -2  -4   4  360.16   19.50
  -2  -4   4  373.56   18.70
   2  -4  -4  374.26   19.20
   2  -4  -4  398.16   20.10
  -2  -4   4  385.46   19.70
   2  -4  -4  364.66   18.30
   2  -4  -4  385.06   19.90
   2  -4  -4  399.16   19.70
  -2   4   4  368.76   19.20
   2   4  -4  365.46   18.80
   2   4  -4  404.66   19.40
  -2   4   4  401.96   19.70
   2   4  -4  393.76   19.30
   2   4  -4  396.16   18.60
  -2   4   4  377.06   19.00
  -2   4   4  375.36   19.70
   2   4  -4  413.36   19.50
   2   4  -4  335.77   19.20
   0  -4   4  111.79    7.80
   0  -4   4  106.69    6.80
   0  -4  -4  110.59    8.40
   0  -4   4  115.29    7.20
   0  -4   4  117.99    8.00
   0  -4  -4  119.19    7.80
   0  -4  -4  103.19    7.20
   0  -4  -4  119.89    8.30
   0  -4   4  115.39    6.70
   0  -4  -4  109.09    6.20
   0   4   4  100.09    7.20
   0   4   4  114.89    7.80
   0   4   4  115.49    7.10
   0   4  -4  118.89    6.60
   0   4  -4  109.69    6.70
   0   4  -4  121.59    7.00
   0   4   4  117.29    7.90
   0   4  -4  111.59    7.30
   0   4  -4  114.89    9.10
   0   4  -4   97.19    7.60
  -2  -4  -4   61.79    6.10
  -2  -4  -4   60.09    4.60
   2  -4   4   69.09    6.10
   2  -4   4   62.69    4.80
  -2  -4  -4   52.09    6.40
   2  -4   4   62.09    6.50
   2  -4   4   63.89    5.20
   2  -4   4   64.79    5.70
  -2  -4  -4   70.39    7.00
  -2   4  -4   63.89    6.10
   2   4   4   53.09    5.90
  -2   4  -4   66.29    4.70
  -2   4  -4   58.99    4.60
   2   4   4   56.79    5.70
   2   4   4   66.29    6.00
  -2   4  -4   66.09    5.40
  -2   4  -4   64.69    4.80
   2   4   4   62.79    5.10
   2   4   4   63.29    5.70
   4  -4   4   20.50    3.20
   4  -4   4   21.50    4.60
   4  -4   4   17.70    4.40
  -4  -4  -4   21.60    4.70
   4  -4   4   20.60    3.40
  -4  -4  -4   16.00    3.70
   4  -4   4   27.90    4.90
  -4   4  -4   16.20    3.40
   4   4   4   19.90    4.20
   4   4   4   19.90    3.50
  -4   4  -4   20.10    3.20
   4   4   4   19.10    4.00
  -4   4  -4   24.50    4.60
  -4   4  -4   12.60    3.80
  -4   4  -4   25.50    3.40
   4   4   4   18.70    3.30
  -6  -4  -4   49.20    9.60
   6  -4   4   32.60    5.80
   6  -4   4   39.20    5.40
   6  -4   4   40.00    7.90
  -6  -4  -4   51.19    8.80
  -6  -4  -4   40.80    7.10
   6  -4   4   36.50    6.60
  -6  -4  -4   36.70    6.00
   6  -4   4   46.10    8.40
   6   4   4   51.69    7.50
   6   4   4   40.40    7.00
  -6   4  -4   56.39    8.20
   6   4   4   37.70    5.40
   6   4   4   35.50    7.50
  -6   4  -4   50.39    7.40
   8  -4   4   25.30    5.60
  -8  -4  -4   25.50    5.30
   8  -4   4   31.40    4.90
   8  -4   4   39.70    7.60
   8  -4   4   39.30    6.30
   8  -4   4   38.70    6.90
   8   4   4   19.60    6.30
   8   4   4   34.10    7.40
   8   4   4   41.40    8.40
  10  -4   4    3.30    7.20
  10  -4   4   15.20   14.10
  10  -4   4    1.20    7.40
  10   4   4   21.20    8.40
  10   4   4   21.30    8.80
 -11  -5   4   -3.10    6.10
  11  -5  -4   -7.80    5.80
  11   5  -4  -11.90    6.90
  11   5  -4    4.10    5.40
   9  -5  -4   11.40    4.90
  -9  -5   4   14.50    4.90
   9   5  -4   13.60    5.10
   9   5  -4    8.20    4.80
  -9   5   4    6.50    5.10
   9   5  -4   10.90    5.80
   9   5  -4   14.30    5.00
   9   5  -4    4.00    4.90
  -7  -5   4   42.00    5.00
  -7  -5   4   44.00    6.10
   7  -5  -4   42.30    6.30
   7  -5  -4   45.20    5.70
   7   5  -4   37.20    6.00
   7   5  -4   58.69    7.00
  -7   5   4   39.70    4.90
   7   5  -4   47.50    7.90
  -7   5   4   45.80    7.50
  -7   5   4   30.40    5.90
  -7   5   4   51.89    6.40
  -7   5   4   32.00    6.80
   7   5  -4   41.90    4.70
   7   5  -4   49.70    6.80
   7   5  -4   47.70    6.70
   7   5  -4   51.69    6.70
   7   5  -4   42.30    6.80
  -7   5   4   43.40    5.50
   7   5  -4   41.10    6.00
  -5  -5   4    0.00    2.60
   5  -5  -4   -4.40    3.00
   5  -5  -4   -0.70    2.80
  -5  -5   4    2.30    2.40
   5  -5  -4    1.40    3.00
  -5   5   4   -0.10    4.10
   5   5  -4   -1.20    2.80
   5   5  -4    2.40    2.90
   5   5  -4   -0.30    2.20
  -5   5   4   -1.90    3.70
  -5   5   4    4.10    3.10
  -5   5   4   -3.80    4.20
   5   5  -4    0.60    3.40
  -5   5   4    0.20    4.00
   5   5  -4   -4.30    2.90
  -5   5   4   -3.00    2.50
   5   5  -4   -0.50    3.50
   5   5  -4   -3.80    3.50
   3  -5  -4    0.50    2.40
  -3  -5   4    3.30    2.30
   3  -5  -4   -5.50    3.30
  -3  -5   4    1.90    2.10
   3  -5  -4    0.10    3.70
   3  -5  -4    0.20    3.80
  -3   5   4   -2.40    3.20
   3   5  -4   -0.40    3.30
   3   5  -4    6.50    3.70
   3   5  -4   -3.90    3.70
   3   5  -4   -2.30    2.40
   3   5  -4    0.30    1.90
   3   5  -4   -5.10    3.00
  -3   5   4   -3.00    2.70
  -3   5   4   -2.40    3.50
  -3   5   4   -3.20    2.30
   3   5  -4    1.60    2.90
  -3   5   4    2.50    4.30
   1  -5  -4   11.10    3.30
   1  -5  -4   18.10    2.60
   1  -5  -4   15.10    5.20
  -1  -5   4   15.50    4.00
   1  -5  -4   10.90    4.00
   1   5  -4   13.10    2.90
  -1   5   4   16.10    3.40
   1   5  -4   21.30    3.70
  -1   5   4   16.90    4.00
   1   5  -4   17.10    2.70
   1   5  -4   20.20    3.80
   1   5  -4   15.80    3.10
  -1   5   4   13.70    4.00
  -1   5   4   13.60    3.40
   1  -5   4   40.60    5.10
  -1  -5  -4   30.00    5.40
   1  -5   4   30.50    4.70
  -1  -5  -4   36.80    7.70
   1  -5   4   41.20    7.20
   1  -5   4   33.20    5.50
  -1  -5  -4   30.60    3.90
  -1  -5  -4   41.70    5.40
  -1   5  -4   30.60    4.90
   1   5   4   36.00    5.30
   1   5   4   30.30    5.60
  -1   5  -4   30.70    4.30
   1   5   4   28.70    6.10
   1   5   4   29.90    4.30
  -1   5  -4   24.60    4.30
   3  -5   4   38.00    5.30
   3  -5   4   40.70    6.00
  -3  -5  -4   42.70    6.80
   3  -5   4   43.60    6.50
   3  -5   4   40.30    6.10
  -3  -5  -4   40.90    5.20
  -3  -5  -4   54.69    8.30
   3  -5   4   48.00    8.10
   3   5   4   50.49    7.10
  -3   5  -4   53.99    5.20
  -3   5  -4   40.30    4.90
  -3   5  -4   52.99    7.60
   3   5   4   46.20    6.70
  -3   5  -4   38.00    6.20
   3   5   4   46.10    7.20
   3   5   4   39.20    5.40
   3   5   4   42.30    7.20
  -3   5  -4   38.40    6.10
   5  -5   4   -5.20    3.80
  -5  -5  -4   -0.20    4.40
   5  -5   4   -2.00    3.70
   5  -5   4    7.40    5.20
   5  -5   4   -0.40    5.80
   5  -5   4    0.10    3.80
  -5  -5  -4    5.00    6.00
   5   5   4    0.50    5.10
  -5   5  -4   -3.90    2.70
  -5   5  -4   -4.90    6.10
   5   5   4    1.60    3.80
   5   5   4   -7.10    4.70
   5   5   4   -0.90    4.10
  -5   5  -4   -0.90    3.80
  -5   5  -4    5.70    4.90
   7  -5   4   14.60    6.20
   7  -5   4   20.80    5.60
   7  -5   4   38.00    8.30
   7  -5   4   34.50    8.20
   7   5   4   34.80    7.30
  -7   5  -4   61.59   10.90
   7   5   4   28.90    7.40
  -7   5  -4   18.00    5.90
   7   5   4   32.40    6.50
  10  -6  -4   12.30    7.70
   8  -6  -4   -3.80    5.40
  -8  -6   4    7.10    5.70
   8  -6  -4    9.90    4.90
  -8   6   4    9.80    6.70
   8   6  -4   -2.00    6.20
   8   6  -4    4.30    5.50
   8   6  -4   -2.90    7.00
   8   6  -4   -2.10    6.10
  -6  -6   4    9.00    4.60
   6  -6  -4    7.70    4.80
  -6  -6   4    8.40    3.60
   6  -6  -4   10.30    4.30
  -6   6   4   10.80    4.40
   6   6  -4    4.80    5.70
   6   6  -4   10.70    6.20
   6   6  -4   17.80   11.10
   6   6  -4   13.00    5.10
  -6   6   4    1.40    6.00
   6   6  -4    9.30    4.30
   6   6  -4    9.20    5.50
   6   6  -4   13.30    5.50
  -6   6   4   17.00    5.90
  -6   6   4   18.80    4.90
   6   6  -4    9.60    4.90
  -4  -6   4    1.50    4.00
   4  -6  -4    0.70    3.40
   4   6  -4    4.20    5.40
  -4   6   4   -2.70    5.10
  -4   6   4    0.40    3.70
   4   6  -4   -6.80    4.60
  -4   6   4    4.60    5.20
   4   6  -4   -0.90    3.90
   4   6  -4   -7.70    5.00
  -4   6   4   -1.20    5.50
   4   6  -4   -3.60    4.10
   4   6  -4   -1.90    5.10
  -4   6   4    2.50    4.20
   4   6  -4    0.60    3.00
   4   6  -4   -3.90    4.40
  -2  -6   4  157.38   10.40
   2  -6  -4  136.89   11.40
   2  -6  -4  141.99   10.30
   2  -6  -4  156.28    9.20
  -2  -6   4  151.38    9.60
   2   6  -4  155.98   12.50
  -2   6   4  147.19   11.70
   2   6  -4  158.58   11.30
  -2   6   4  139.39   10.70
   2   6  -4  161.98   11.10
   2   6  -4  149.49   10.10
  -2   6   4  153.58   12.20
  -2   6   4  147.89   11.30
   2   6  -4  169.28   13.10
  -2   6   4  181.58   13.30
   2   6  -4  171.58   11.70
   2   6  -4  158.38   10.20
   2   6  -4  145.19   12.20
  -2   6   4  152.58   10.60
  -2   6   4  142.49   13.70
   0  -6   4   24.50    4.30
   0  -6  -4   17.40    5.30
   0  -6  -4   22.90    7.30
   0  -6  -4   28.50    5.00
   0  -6   4   32.90    5.40
   0  -6  -4   39.40    6.70
   0  -6  -4   34.50    5.80
   0   6   4   22.30    5.70
   0   6   4   22.40    5.30
   0   6   4   38.20    5.30
   0   6  -4   32.10    6.80
   0   6   4   33.10    6.10
   0   6   4   32.30    5.20
   0   6  -4   27.00    5.20
   0   6  -4   29.20    5.60
   0   6  -4   29.40    4.50
   0   6  -4   27.10    5.60
   0   6  -4   26.30    6.30
   0   6  -4   32.80    6.30
  -2  -6  -4   25.10    3.90
   2  -6   4   23.80    6.90
   2  -6   4   24.00    6.40
  -2  -6  -4   16.00    3.90
   2  -6   4   14.70    4.20
  -2  -6  -4   19.40    5.50
   2   6   4   13.70    5.10
  -2   6  -4   16.60    4.00
  -2   6  -4   12.80    4.70
  -2   6  -4   16.40    4.20
  -2   6  -4    6.50    6.10
   2   6   4   23.30    4.50
   4  -6   4    5.00    4.40
   4  -6   4    4.10    6.70
  -4  -6  -4    3.40    3.40
  -4  -6  -4   -1.30    4.90
   4  -6   4    0.90    5.00
   4  -6   4    3.70    7.60
  -4   6  -4    3.40    3.60
   4   6   4   -6.40    3.90
   4   6   4    6.50    5.70
  -4   6  -4   15.20   10.30
   4   6   4    2.80    6.00
   4   6   4   13.80    6.30
  -4   6  -4    0.60    4.50
   6  -6   4   23.80    6.80
   6  -6   4   11.90    8.80
   6  -6   4   37.70    8.10
   6  -6   4   16.40   10.20
   6   6   4   20.50    8.60
   6   6   4   14.40    5.70
   6   6   4   23.70    8.00
  -6   6  -4   21.70    7.20
   6   6   4   11.70    7.20
  -7  -7   4   17.70    7.50
   7  -7  -4   23.30    7.40
   7   7  -4   25.60    9.80
  -7   7   4   11.70   10.40
   7   7  -4    7.60    6.30
  -7   7   4   11.40    6.30
   7   7  -4   -8.80    8.00
   7   7  -4    4.10    9.20
   5  -7  -4   15.10    6.60
  -5  -7   4    6.90    5.90
  -5   7   4  -12.60    8.10
  -5   7   4   -6.40    5.70
  -5   7   4    0.00    7.40
  -5   7   4   17.30   12.50
   5   7  -4    0.30    7.40
   5   7  -4    2.30    6.20
   5   7  -4    6.00    5.40
   5   7  -4   28.40    9.50
   5   7  -4   -0.70    8.20
  -3  -7   4    5.70    5.20
  -3   7   4    6.60    5.30
   3   7  -4   -6.10    7.60
  -3   7   4    0.90    6.90
   3   7  -4   10.40    9.00
   3   7  -4    5.90    6.80
   3   7  -4    4.90    5.80
  -3   7   4   17.30    8.10
   3   7  -4   11.00    7.40
   3   7  -4   -0.30    4.30
   1  -7  -4    1.80    4.70
  -1  -7   4    8.50    5.00
   1   7  -4   19.60    7.90
   1   7  -4    3.10    4.00
   1   7  -4   17.60    5.70
   1   7  -4    6.70    7.30
  -1   7   4   -2.40    6.80
   1   7  -4  -11.40   11.70
   1   7  -4    0.60    7.40
  -1   7   4   -2.80    6.90
   1  -7   4   18.90    5.40
  -1  -7  -4   23.50    5.20
  -1  -7  -4   18.50    5.50
   1   7   4    6.10    7.80
  -1   7  -4   15.70    5.20
   1   7   4   45.70   11.80
  -1   7  -4   15.40    6.20
   1   7   4    7.20    5.90
  -1   7  -4   14.90    8.80
   1   7   4   23.00    4.90
  -1   7  -4   12.00    9.70
  -3  -7  -4   13.50    6.10
   3  -7   4   12.60    6.40
  -3   7  -4    7.90   10.00
   3   7   4   17.90    8.60
   3   7   4    6.30    5.30
  -3   7  -4   14.00    9.80
  -3   7  -4   10.70    5.30
  -3   7  -4   19.00    7.70
   3   7   4   11.80    7.60
  14   0  -5    1.50    3.90
  14   0  -5   -0.40    4.80
  12   0  -5   18.10    3.10
  12   0  -5   24.50    3.80
  12   0  -5   22.80    3.80
  12   0  -5   14.50    4.70
  10   0  -5    5.30    2.10
  10   0  -5    2.80    2.60
  10   0  -5    4.70    2.30
  10   0  -5    5.20    2.00
   8   0  -5    5.80    1.80
   8   0  -5    8.50    1.70
   6   0  -5  143.69    7.60
   6   0  -5  144.19    7.50
   4   0  -5    1.60    1.00
  -4   0   5    1.60    0.90
   4   0  -5    1.30    0.90
   2   0  -5  865.71   37.20
   2   0  -5  814.12   37.10
  -2   0   5  825.82   36.90
  -2   0   5  706.83   36.90
   2   0  -5  812.32   36.90
  -2   0   5  687.03   36.90
   2   0  -5  789.22   37.00
   0   0  -5    6.50    1.20
   0   0  -5    5.80    1.60
   0   0   5    5.80    1.70
   0   0   5    7.50    1.70
   0   0   5    6.80    1.30
   0   0  -5    6.60    1.60
   0   0  -5    5.00    1.40
   0   0   5    7.10    1.50
  -2   0  -5   29.60    2.40
   2   0   5   32.00    3.30
  -2   0  -5   28.70    3.40
  -2   0  -5   30.90    3.40
   2   0   5   26.80    3.50
   2   0   5   34.50    3.50
   2   0   5   27.40    2.30
  -2   0  -5   28.90    3.00
  -4   0  -5    0.60    2.10
   4   0   5   -0.60    2.10
   4   0   5    0.10    1.00
   4   0   5    0.20    1.50
  -4   0  -5   -0.30    1.80
  -4   0  -5   -1.10    1.30
   4   0   5    0.10    2.10
   4   0   5    0.30    1.80
  -4   0  -5    1.00    2.00
  -4   0  -5    0.60    1.20
   6   0   5  386.76   20.20
   6   0   5  393.26   19.40
   6   0   5  392.06   20.10
  -6   0  -5  382.06   19.70
  -6   0  -5  364.16   20.10
   6   0   5  382.96   19.90
  -6   0  -5  369.96   18.90
   8   0   5   12.20    4.90
   8   0   5    7.70    4.30
   8   0   5   10.70    4.10
   8   0   5    1.70    4.20
  -8   0  -5   -4.00    5.00
  -8   0  -5    2.90    3.00
   8   0   5    2.90    3.10
  -8   0  -5    3.30    3.70
  -8   0  -5    4.60    5.40
  10   0   5   23.40    6.70
  10   0   5   17.70    6.60
  10   0   5   21.30    7.20
  10   0   5   24.80    5.40
  13  -1  -5   66.19    8.30
  13  -1  -5   83.49    7.00
  13   1  -5   68.49    7.90
  13   1  -5   71.39    7.80
  11  -1  -5   54.39    6.00
  11  -1  -5   66.49    6.80
  11  -1  -5   66.09    5.40
  11  -1  -5   67.19    5.30
  11   1  -5   60.49    4.90
  11   1  -5   63.59    5.40
  11   1  -5   77.09    6.70
  11   1  -5   78.79    6.10
   9  -1  -5   84.49    5.60
   9  -1  -5   77.49    5.70
   9   1  -5   84.49    6.00
   9   1  -5   81.69    5.80
   9   1  -5   80.39    5.10
  -7  -1   5  871.61   41.10
   7  -1  -5  861.41   40.80
   7   1  -5  871.71   41.00
   7   1  -5  872.01   41.40
   7   1  -5  851.21   40.70
   5  -1  -5    4.70    1.10
  -5  -1   5    6.00    1.40
   5  -1  -5    8.20    1.60
  -5   1   5    5.40    1.20
   5   1  -5    4.90    1.20
   5   1  -5    6.80    1.20
  -3  -1   5   11.60    1.70
  -3  -1   5    9.50    1.60
   3  -1  -5    9.70    1.80
  -3  -1   5    9.60    1.50
  -3  -1   5    9.80    1.60
   3  -1  -5    8.60    1.50
   3  -1  -5   11.90    1.60
   3  -1  -5    9.50    1.80
   3   1  -5   10.60    1.70
  -3   1   5    9.70    1.40
   3   1  -5   10.10    1.50
   3   1  -5    9.10    1.40
   3   1  -5   10.30    1.80
  -3   1   5    9.10    1.70
   1  -1  -5   17.30    2.50
   1  -1  -5   19.80    1.80
  -1  -1   5   21.10    1.90
  -1  -1   5   16.50    2.30
  -1  -1   5   21.00    2.70
  -1  -1   5   22.00    2.70
   1  -1  -5   17.60    2.30
   1  -1  -5   16.10    2.80
   1   1  -5   18.90    2.50
  -1   1   5   18.50    2.30
  -1   1   5   18.50    2.60
  -1   1   5   17.80    2.40
   1   1  -5   22.70    1.90
   1   1  -5   19.00    2.40
   1   1  -5   23.00    2.60
  -1  -1  -5  512.15   24.60
   1  -1   5  552.74   24.30
   1  -1   5  528.35   24.80
  -1  -1  -5  501.75   24.70
   1  -1   5  522.85   24.90
   1  -1   5  469.65   24.00
  -1  -1  -5  499.65   24.80
   1  -1   5  557.84   25.00
  -1  -1  -5  546.85   25.00
  -1  -1  -5  490.15   24.10
  -1   1  -5  503.25   24.30
   1   1   5  480.65   24.70
  -1   1  -5  522.55   24.80
   1   1   5  505.65   24.70
  -1   1  -5  522.55   24.70
  -1   1  -5  487.85   24.70
   1   1   5  454.25   24.70
  -3  -1  -5    1.30    0.90
  -3  -1  -5   -0.80    1.20
   3  -1   5   -1.50    1.90
  -3  -1  -5   -2.50    2.00
   3  -1   5    2.40    2.20
  -3  -1  -5    0.80    2.40
   3  -1   5    0.90    1.30
   3  -1   5   -1.00    1.40
   3  -1   5   -0.20    1.10
   3   1   5    2.30    1.90
  -3   1  -5   -2.90    1.90
   3   1   5    1.00    2.00
  -3   1  -5    0.00    1.10
   3   1   5    1.30    1.30
  -3   1  -5   -0.90    2.00
   3   1   5   -0.60    1.50
   5  -1   5   27.40    4.80
  -5  -1  -5   30.40    5.00
   5  -1   5   30.20    4.40
  -5  -1  -5   32.30    4.50
   5  -1   5   29.20    5.50
   5  -1   5   36.10    3.70
   5  -1   5   30.10    2.80
   5   1   5   28.90    4.70
  -5   1  -5   32.10    3.10
  -5   1  -5   27.60    3.10
  -5   1  -5   24.80    4.30
   5   1   5   28.00    4.60
   5   1   5   28.90    5.00
  -5   1  -5   26.50    5.00
  -7  -1  -5   14.60    3.40
   7  -1   5    9.70    3.20
  -7  -1  -5   14.60    4.60
   7  -1   5   12.80    4.30
   7  -1   5   17.80    2.60
  -7  -1  -5    6.40    3.70
   7  -1   5    9.20    3.70
  -7  -1  -5   13.20    4.80
   7  -1   5   12.30    4.00
  -7   1  -5   12.70    3.60
   7   1   5   11.90    4.00
  -7   1  -5   16.60    4.50
   7   1   5   12.90    4.30
  -7   1  -5   13.70    2.60
  -7   1  -5   17.20    4.50
   9  -1   5   -8.00    5.10
  -9  -1  -5   -5.50    4.00
  -9  -1  -5    9.10    4.80
   9  -1   5    2.80    4.80
   9  -1   5    4.40    5.40
   9  -1   5    5.90    4.00
   9   1   5    3.80    5.40
   9   1   5    1.40    4.50
   9   1   5   -7.00    5.00
  -9   1  -5   -6.30    4.60
   9   1   5   -0.30    6.10
  14  -2  -5    0.00    6.40
  14   2  -5    8.10    5.60
  12  -2  -5    9.80    4.30
  12  -2  -5   22.10    5.20
  12   2  -5   13.30    4.00
  12   2  -5   11.10    3.80
  10  -2  -5    2.00    2.70
  10  -2  -5    5.30    2.70
  10  -2  -5    1.10    2.30
  10   2  -5    2.50    2.90
  10   2  -5   -0.90    2.40
  10   2  -5    4.60    1.90
  10   2  -5    3.10    2.90
   8  -2  -5    4.20    1.80
   8  -2  -5    9.00    2.20
   8  -2  -5   10.90    2.20
  -8  -2   5    7.30    2.40
   8   2  -5    5.30    2.10
   8   2  -5    6.00    2.40
   8   2  -5    7.60    1.70
   6  -2  -5  130.69    7.20
  -6  -2   5  135.19    7.90
   6  -2  -5  143.89    7.70
  -6  -2   5  139.69    7.50
   6  -2  -5  131.19    7.50
   6  -2  -5  135.39    7.80
  -6   2   5  140.09    7.50
  -6   2   5  142.09    7.30
   6   2  -5  129.59    8.10
   6   2  -5  145.39    7.40
   6   2  -5  136.49    7.40
   4  -2  -5    1.60    1.30
  -4  -2   5    1.30    1.40
  -4  -2   5    1.40    1.20
  -4  -2   5   -1.10    1.10
   4  -2  -5    0.00    1.20
  -4  -2   5   -0.10    1.50
   4  -2  -5    2.90    1.60
   4  -2  -5   -2.60    1.50
   4   2  -5   -0.60    1.30
   4   2  -5   -0.50    1.10
  -4   2   5    0.20    1.00
  -4   2   5    0.80    1.40
   4   2  -5   -0.80    1.30
   4   2  -5    0.70    1.10
   4   2  -5    0.90    1.40
   2  -2  -5  606.34   26.40
   2  -2  -5  561.24   26.40
   2  -2  -5  626.94   26.30
  -2  -2   5  492.15   26.00
   2  -2  -5  534.95   26.00
  -2  -2   5  582.04   25.80
  -2  -2   5  553.74   25.90
  -2   2   5  466.05   26.00
   2   2  -5  464.35   25.90
   2   2  -5  574.24   26.10
  -2   2   5  536.85   25.90
   2   2  -5  532.05   25.80
   2   2  -5  530.85   25.90
  -2   2   5  511.85   26.10
  -2   2   5  535.05   25.50
   0  -2  -5    3.40    1.90
   0  -2  -5    2.30    1.30
   0  -2   5    6.20    1.50
   0  -2   5    4.20    1.30
   0  -2  -5    3.10    1.60
   0  -2  -5    2.90    1.10
   0  -2  -5    5.90    1.90
   0  -2   5    3.10    2.00
   0  -2   5    4.00    1.40
   0  -2   5    2.60    1.90
   0   2  -5    6.00    1.90
   0   2  -5    2.80    1.70
   0   2  -5    2.20    1.50
   0   2  -5    5.50    1.30
   0   2   5    2.50    1.70
   0   2  -5    2.10    1.10
   0   2   5    3.70    1.30
   0   2   5    2.80    1.80
  -2  -2  -5   16.10    2.60
  -2  -2  -5   17.90    1.90
   2  -2   5   16.60    2.30
   2  -2   5   25.20    3.90
  -2  -2  -5   17.20    3.60
  -2  -2  -5   25.60    4.70
   2  -2   5   17.50    3.20
   2  -2   5   17.40    2.70
   2  -2   5   18.90    3.10
  -2  -2  -5   21.30    3.80
   2   2   5   23.60    3.70
  -2   2  -5   13.40    2.30
   2   2   5   18.70    3.10
  -2   2  -5   23.90    3.70
  -2   2  -5   21.00    3.30
   2   2   5   13.40    2.80
   4  -2   5    1.30    2.10
   4  -2   5   -1.30    1.40
  -4  -2  -5    0.70    1.80
   4  -2   5    3.50    2.90
  -4  -2  -5    0.10    2.80
   4  -2   5    0.40    1.80
  -4  -2  -5   -2.70    2.20
   4  -2   5    1.80    2.60
  -4  -2  -5    7.40    3.00
   4   2   5   -1.20    2.10
   4   2   5   -3.70    2.50
  -4   2  -5    3.30    2.70
  -4   2  -5    3.00    2.90
   4   2   5   -0.30    1.70
  -4   2  -5    1.10    2.20
   4   2   5    2.80    2.20
  -4   2  -5    1.50    1.50
   6  -2   5  303.47   18.70
   6  -2   5  347.97   18.00
  -6  -2  -5  303.17   17.10
   6  -2   5  333.77   18.10
   6  -2   5  312.37   16.20
   6  -2   5  327.57   16.80
  -6  -2  -5  324.77   17.50
  -6  -2  -5  308.37   18.00
   6   2   5  342.87   17.00
   6   2   5  327.57   17.90
  -6   2  -5  320.27   17.60
   6   2   5  322.37   17.60
  -6   2  -5  320.47   17.20
   6   2   5  326.87   17.50
  -8  -2  -5    0.80    4.80
   8  -2   5    0.40    4.80
   8  -2   5    3.90    3.80
   8  -2   5   -6.60    4.20
   8  -2   5   -1.70    2.90
   8  -2   5   -3.50    4.50
   8   2   5    7.10    4.80
  -8   2  -5    3.20    4.30
   8   2   5    3.30    4.60
   8   2   5    3.80    5.20
   8   2   5   -8.30    4.50
  10  -2   5   19.20    6.40
  10  -2   5   25.00    6.90
  10  -2   5   10.40    7.20
  10  -2   5   14.70    8.30
  10   2   5    8.70    6.00
  10   2   5   19.40    7.50
  10   2   5   23.20    7.50
  10   2   5   20.30    7.80
  13  -3  -5   44.30    7.20
  13   3  -5   51.69    8.50
  13   3  -5   50.29    7.00
  11  -3  -5   45.40    6.60
  11  -3  -5   43.20    7.00
  11   3  -5   38.80    4.80
  11   3  -5   37.10    6.50
   9  -3  -5   43.90    5.70
  -9  -3   5   58.39    6.20
   9  -3  -5   56.29    6.10
   9  -3  -5   60.09    4.90
  -9   3   5   66.19    6.20
   9   3  -5   52.79    8.50
   9   3  -5   53.69    4.70
   9   3  -5   52.69    6.20
   9   3  -5   62.29    4.90
   7  -3  -5  594.04   28.00
  -7  -3   5  597.94   27.90
   7  -3  -5  565.14   28.10
  -7  -3   5  579.54   28.60
  -7   3   5  549.85   28.10
   7   3  -5  566.94   28.90
  -7   3   5  582.74   28.10
  -7   3   5  586.74   28.00
   7   3  -5  595.54   28.00
   7   3  -5  591.44   27.90
   7   3  -5  584.54   27.90
   5  -3  -5    9.00    3.20
   5  -3  -5    7.10    1.80
   5  -3  -5    8.10    2.10
   5  -3  -5    9.00    2.70
  -5  -3   5    5.40    1.70
  -5  -3   5    8.00    2.00
   5  -3  -5    9.70    2.50
  -5   3   5    5.30    1.80
   5   3  -5    6.10    1.80
  -5   3   5    4.80    1.50
   5   3  -5    7.60    2.10
   5   3  -5    4.20    1.70
  -5   3   5    5.70    2.40
  -5   3   5    7.60    1.70
   5   3  -5    5.80    2.00
  -3  -3   5   10.50    2.50
  -3  -3   5    9.60    2.30
  -3  -3   5   14.60    2.40
   3  -3  -5   13.20    2.70
   3  -3  -5   11.60    2.90
  -3  -3   5   10.40    1.80
   3  -3  -5   10.30    2.90
  -3   3   5   11.40    2.50
   3   3  -5    9.00    2.00
  -3   3   5   10.90    1.90
   3   3  -5   11.40    2.50
  -3   3   5   12.20    2.10
   3   3  -5   10.10    2.30
  -3   3   5   13.10    2.70
   3   3  -5    9.70    2.10
   3   3  -5   10.80    1.90
  -1  -3   5   13.80    1.90
   1  -3  -5   14.50    2.50
  -1  -3   5   11.90    1.80
  -1  -3   5   11.20    2.20
   1  -3  -5   13.40    3.00
   1  -3  -5   17.70    2.60
  -1  -3   5   13.80    2.90
  -1  -3   5   14.70    2.80
  -1   3   5   13.00    2.70
  -1   3   5   16.90    2.80
  -1   3   5   11.60    2.70
   1   3  -5   10.30    2.30
   1   3  -5   16.90    3.50
   1   3  -5   11.40    1.60
   1   3  -5   14.30    2.30
  -1   3   5   12.40    2.30
   1   3  -5   13.50    2.70
   1   3  -5   11.90    1.90
   1  -3   5  260.97   13.00
  -1  -3  -5  235.58   13.50
  -1  -3  -5  235.98   14.00
  -1  -3  -5  254.57   14.20
  -1  -3  -5  263.37   13.90
   1  -3   5  264.07   14.10
   1  -3   5  273.37   13.70
   1  -3   5  253.47   13.00
   1  -3   5  259.07   13.90
  -1   3  -5  244.88   13.10
   1   3   5  278.97   14.10
  -1   3  -5  274.27   13.70
  -1   3  -5  250.97   13.30
   1   3   5  254.27   13.70
  -1   3  -5  256.87   13.90
   1   3   5  253.27   13.80
  -1   3  -5  245.18   12.80
   3  -3   5    1.20    2.80
  -3  -3  -5    0.60    1.20
  -3  -3  -5   -2.60    3.30
   3  -3   5   -0.90    1.80
  -3  -3  -5    2.10    2.60
   3  -3   5   -2.20    2.10
  -3  -3  -5    1.30    3.00
   3  -3   5    4.70    3.20
   3  -3   5   -0.90    1.90
  -3  -3  -5   -0.20    2.10
   3   3   5    0.70    1.70
   3   3   5    2.20    2.90
  -3   3  -5    2.40    2.90
  -3   3  -5    4.30    2.10
  -3   3  -5   -1.00    1.50
  -3   3  -5    1.60    1.80
  -3   3  -5   -0.80    2.60
   3   3   5    0.50    2.60
   3   3   5   -0.90    2.10
  -3   3  -5    1.30    2.60
   5  -3   5   25.70    6.10
   5  -3   5   26.20    6.80
   5  -3   5   30.70    6.10
  -5  -3  -5   21.60    4.90
   5  -3   5   29.00    3.70
  -5  -3  -5   31.20    4.80
   5  -3   5   23.80    3.60
   5   3   5   35.00    5.80
  -5   3  -5   26.40    5.00
  -5   3  -5   34.50    6.10
   5   3   5   30.40    4.60
   5   3   5   35.70    5.80
  -5   3  -5   21.10    3.60
   5   3   5   22.60    5.10
   7  -3   5   12.20    4.20
   7  -3   5    1.30    2.90
  -7  -3  -5    7.50    5.00
  -7  -3  -5   12.10    4.90
   7  -3   5    5.70    5.30
   7  -3   5    8.60    4.40
   7  -3   5    8.50    5.30
   7   3   5    6.80    5.10
   7   3   5   12.60    4.70
   7   3   5    2.60    4.30
   7   3   5   13.30    4.50
  -7   3  -5    9.00    8.30
  -9  -3  -5   23.50    7.60
   9  -3   5    1.50    7.10
   9  -3   5    3.00    5.70
   9  -3   5   18.30    7.80
   9  -3   5   15.60    6.10
   9   3   5    8.60    6.60
   9   3   5   -1.70    6.70
  12  -4  -5    9.90    6.20
  12   4  -5   -6.70    6.10
  12   4  -5   -0.30    5.30
 -10  -4   5    2.70    4.30
  10  -4  -5    8.30    3.40
  10  -4  -5   -0.20    3.90
 -10   4   5   -0.80    5.30
  10   4  -5    3.60    4.00
  10   4  -5    1.20    3.80
  10   4  -5    8.10    4.10
   8  -4  -5    4.40    3.00
  -8  -4   5    5.10    3.00
   8  -4  -5    3.70    3.60
  -8  -4   5    5.60    2.70
   8   4  -5    2.50    3.80
   8   4  -5    4.80    2.90
   8   4  -5    3.90    2.50
  -8   4   5    2.90    4.70
  -8   4   5    0.10    3.30
   8   4  -5    5.80    3.40
   8   4  -5    3.80    3.20
   6  -4  -5  118.39    7.10
   6  -4  -5  115.99    7.80
  -6  -4   5  106.69    6.70
   6  -4  -5  105.49    7.50
  -6  -4   5  105.49    7.50
  -6   4   5  105.49    6.50
  -6   4   5  115.99    7.90
   6   4  -5  102.39    8.10
   6   4  -5  104.19    8.60
  -6   4   5  103.79    6.70
   6   4  -5  106.49    7.70
  -6   4   5  105.59    7.20
   6   4  -5  111.89    7.40
   6   4  -5  116.79    7.40
   6   4  -5  104.39    7.00
   6   4  -5  103.19    6.80
  -4  -4   5    2.50    1.80
   4  -4  -5    0.90    3.00
  -4  -4   5    2.40    2.10
   4  -4  -5    0.40    2.20
   4  -4  -5   -1.80    2.50
   4   4  -5   -1.60    2.80
   4   4  -5    0.10    1.70
  -4   4   5   -2.80    2.20
   4   4  -5    2.80    2.20
  -4   4   5    0.40    2.30
   4   4  -5   -0.10    1.90
  -4   4   5    0.10    2.60
   4   4  -5    1.30    1.80
  -4   4   5   -2.80    1.80
  -4   4   5    0.80    2.90
   2  -4  -5  197.68   12.00
   2  -4  -5  217.38   11.60
  -2  -4   5  197.58   10.90
  -2  -4   5  184.08   11.90
  -2  -4   5  201.28   12.20
   2  -4  -5  198.78   12.50
  -2   4   5  206.78   11.40
   2   4  -5  208.78   11.20
   2   4  -5  218.18   11.60
   2   4  -5  207.68   11.70
  -2   4   5  193.38   11.20
   2   4  -5  218.28   10.80
  -2   4   5  217.38   12.20
   2   4  -5  219.38   11.70
  -2   4   5  222.38   12.10
   0  -4   5    0.70    2.00
   0  -4   5    1.90    3.40
   0  -4  -5    2.90    3.10
   0  -4   5    4.50    3.10
   0  -4  -5   -0.60    2.00
   0  -4   5    3.10    2.50
   0  -4  -5    2.10    3.30
   0   4   5   -4.20    2.40
   0   4   5    0.10    2.80
   0   4  -5    0.40    1.70
   0   4  -5   -0.80    2.80
   0   4   5    4.80    2.30
   0   4   5   -1.40    2.70
   0   4  -5    1.20    1.90
   0   4  -5    1.40    1.90
  -2  -4  -5   -2.50    3.80
   2  -4   5    0.90    3.30
   2  -4   5    1.20    3.60
   2  -4   5    4.50    2.60
   2  -4   5    3.90    2.50
  -2  -4  -5    0.20    3.20
   2  -4   5    1.90    1.90
  -2  -4  -5    2.80    3.40
  -2   4  -5    0.40    3.40
   2   4   5    4.60    2.80
  -2   4  -5    7.30    2.20
   2   4   5    2.20    3.20
   2   4   5    0.80    3.00
  -2   4  -5    3.20    3.60
  -2   4  -5    1.50    1.90
   2   4   5    3.00    2.90
  -4  -4  -5   -5.10    4.80
   4  -4   5    0.60    2.90
   4  -4   5    0.60    4.60
   4  -4   5    3.20    4.20
   4  -4   5    4.30    3.20
  -4  -4  -5    4.20    3.70
   4  -4   5    0.70    2.60
  -4  -4  -5    7.70    4.50
   4   4   5    0.00    3.30
  -4   4  -5    4.60    4.50
   4   4   5    9.60    4.30
  -4   4  -5   -0.80    3.40
  -4   4  -5    1.90    2.40
  -4   4  -5    5.50    3.90
  -4   4  -5    6.80    3.20
   4   4   5   -2.90    3.40
   6  -4   5  203.98   14.90
   6  -4   5  196.68   13.30
   6  -4   5  211.58   14.30
   6  -4   5  198.98   11.90
  -6  -4  -5  186.68   13.40
  -6  -4  -5  220.08   17.80
   6  -4   5  197.88   12.20
   6   4   5  171.98   14.10
  -6   4  -5  200.58   13.60
   6   4   5  216.58   13.80
   6   4   5  205.38   13.60
  -6   4  -5  186.68   14.20
   8  -4   5   -8.80    5.40
   8  -4   5    8.10    6.60
   8  -4   5    1.90    7.70
   8   4   5    8.10    6.30
   8   4   5    2.80    7.30
   8   4   5   -6.70    6.10
  -8   4  -5    2.50    7.00
 -11  -5   5   18.10    7.40
  11  -5  -5   13.90    6.90
  11   5  -5   20.50    7.50
  11   5  -5    7.00    6.80
  -9  -5   5   24.60    6.10
  -9  -5   5   23.20    4.40
   9  -5  -5   22.40    5.40
  -9   5   5   29.60    5.90
   9   5  -5   21.00    5.50
   9   5  -5   26.50    5.70
   9   5  -5   23.40    5.60
   9   5  -5   35.00    4.50
   7  -5  -5  310.47   16.70
  -7  -5   5  343.47   17.40
   7  -5  -5  313.87   16.90
   7  -5  -5  276.27   17.40
   7   5  -5  316.87   17.90
  -7   5   5  295.17   15.70
   7   5  -5  324.97   17.30
  -7   5   5  305.77   16.70
   7   5  -5  318.77   16.10
   7   5  -5  323.17   17.60
   7   5  -5  295.07   17.10
   7   5  -5  321.27   16.50
  -7   5   5  277.97   17.50
  -7   5   5  273.77   17.20
   7   5  -5  309.07   17.10
   7   5  -5  312.17   17.40
   7   5  -5  289.07   16.80
  -5  -5   5    6.10    3.20
   5  -5  -5    5.00    3.50
   5  -5  -5    0.40    4.30
   5  -5  -5   12.80    3.60
   5   5  -5    8.90    2.90
  -5   5   5    4.60    5.00
  -5   5   5    8.00    3.00
  -5   5   5    8.50    4.00
   5   5  -5    7.90    4.70
   5   5  -5    5.70    2.70
   5   5  -5    6.20    3.90
  -5   5   5   10.10    5.40
  -5   5   5   -0.30    3.40
   5   5  -5    6.30    3.30
   5   5  -5    8.70    4.00
   5   5  -5    7.10    3.10
   5   5  -5   12.50    3.90
  -3  -5   5   14.90    3.90
   3  -5  -5   16.60    5.10
   3  -5  -5   19.40    4.10
   3  -5  -5   11.80    3.70
   3  -5  -5   14.60    4.70
  -3   5   5   12.90    4.30
   3   5  -5   10.20    2.70
   3   5  -5   20.20    4.90
   3   5  -5   13.50    3.10
  -3   5   5   18.00    3.90
   3   5  -5   11.30    3.80
  -3   5   5   13.10    3.30
   3   5  -5   16.40    4.00
  -3   5   5   10.60    4.20
   1  -5  -5    7.60    3.10
  -1  -5   5    7.80    4.20
  -1  -5   5    8.00    2.70
  -1  -5   5    4.70    4.70
   1  -5  -5   13.20    4.30
  -1  -5   5    9.50    2.70
   1   5  -5   10.10    2.80
   1   5  -5   12.40    4.20
  -1   5   5    5.70    4.00
   1   5  -5    8.60    3.50
  -1   5   5    7.20    3.20
   1   5  -5   13.90    3.30
  -1   5   5    9.60    4.00
  -1  -5  -5   95.39    8.80
  -1  -5  -5  105.39   10.40
   1  -5   5   98.89    9.40
  -1  -5  -5   93.89   10.40
   1  -5   5  103.79    7.50
   1  -5   5   87.39    7.70
   1  -5   5  111.49   10.10
  -1  -5  -5   96.39    8.20
  -1   5  -5  100.59    8.90
   1   5   5   98.19    9.20
  -1   5  -5   97.49    7.10
  -1   5  -5   96.79    9.20
  -1   5  -5  111.39    9.40
  -1   5  -5   98.19    7.10
  -1   5  -5   94.39    7.20
   1   5   5   94.79    8.10
   1   5   5   90.79    7.80
  -3  -5  -5    3.80    5.60
  -3  -5  -5    7.20    6.60
   3  -5   5    6.40    5.00
   3  -5   5    7.20    5.80
   3  -5   5    1.30    3.60
  -3  -5  -5    2.20    4.80
   3  -5   5   -2.10    3.50
  -3  -5  -5    0.70    4.30
  -3   5  -5    0.20    5.50
   3   5   5   -3.00    4.50
  -3   5  -5   -0.70    4.00
  -3   5  -5    4.70    5.50
  -3   5  -5   -1.80    2.70
   3   5   5   -0.70    3.70
  -3   5  -5    3.50    3.50
   3   5   5    0.40    4.50
   3   5   5    0.00    4.60
   5  -5   5   22.20    7.80
   5  -5   5   28.20    6.80
  -5  -5  -5   29.50    7.20
   5  -5   5   19.50    5.20
   5  -5   5   26.40    5.60
  -5   5  -5   18.30    3.90
  -5   5  -5   35.20   11.10
   5   5   5   10.20    5.50
   5   5   5   16.60    5.50
   7  -5   5   -8.60    8.70
   7  -5   5    6.00    5.90
   7  -5   5    8.30    6.40
   7  -5   5   -9.10    7.20
   7   5   5   -5.00    8.20
   7   5   5    9.30    6.90
   8  -6  -5    0.50    5.40
   8  -6  -5   12.70    6.80
  -8  -6   5   12.70    6.00
  -8  -6   5    0.70    4.70
   8   6  -5    1.60    6.60
   8   6  -5   19.50    7.60
  -8   6   5  -11.90    7.20
   8   6  -5    4.90    5.70
   8   6  -5    6.80    6.30
   8   6  -5    6.40    5.50
   6  -6  -5   72.29    9.00
  -6  -6   5   79.49    7.80
  -6  -6   5   54.59    8.80
   6  -6  -5   83.39    8.60
   6   6  -5   56.99   11.70
  -6   6   5   62.89    9.10
  -6   6   5   68.49   10.40
   6   6  -5   58.59    8.50
   6   6  -5   97.19   11.30
   6   6  -5   90.49    9.70
   6   6  -5   67.19   10.00
   6   6  -5   83.59   10.00
  -6   6   5   93.79   11.20
  -6   6   5   77.89    7.90
   6   6  -5   78.39    9.10
  -4  -6   5    3.80    4.00
   4  -6  -5    1.40    4.30
  -4  -6   5    0.00    4.00
   4   6  -5   -3.20    3.90
   4   6  -5   -2.40    5.50
   4   6  -5    4.20    5.10
  -4   6   5    7.40    5.00
   4   6  -5   14.50    5.50
   4   6  -5   -0.20    3.20
   4   6  -5    6.00    6.40
  -4   6   5    2.30    3.90
  -4   6   5   -1.50    5.50
  -4   6   5   -6.70    5.10
  -4   6   5   10.50    5.10
  -2  -6   5   71.49    7.20
   2  -6  -5   58.19   11.40
   2  -6  -5   64.49    9.30
  -2  -6   5   52.59    6.50
   2  -6  -5   65.99    6.00
  -2   6   5   42.60   10.50
  -2   6   5   53.99    7.80
   2   6  -5   77.29    7.40
   2   6  -5   73.89    7.00
   2   6  -5   64.09    9.70
  -2   6   5   50.89    8.30
  -2   6   5   79.59    9.20
   2   6  -5   60.39    9.70
   2   6  -5   47.50    9.80
  -2   6   5   54.99    9.30
   2   6  -5   57.09   11.40
   0  -6  -5    0.80    7.00
   0  -6   5    2.00    3.70
   0  -6   5   11.10    6.20
   0  -6  -5    4.60    6.50
   0   6   5    4.80    4.20
   0   6  -5    0.70    6.10
   0   6   5   -5.40    5.10
   0   6  -5   -1.90    4.00
   0   6   5    7.70    5.30
   0   6   5   18.40    7.30
   0   6  -5    2.60    3.40
   2  -6   5    6.60    4.90
   2  -6   5   -0.40    7.80
  -2  -6  -5   -1.20    3.80
   2  -6   5   -8.10    6.80
   2  -6   5    3.00    4.30
   2   6   5   -2.90    5.80
  -2   6  -5    1.50    3.80
  -2   6  -5    1.90    4.50
   2   6   5   -6.00    4.60
  -2   6  -5    5.90    7.20
   4  -6   5   -5.80    8.10
   4  -6   5    5.80    5.10
   4  -6   5   -2.20    5.90
   4  -6   5    8.60    8.90
   4   6   5   -2.30    6.80
   4   6   5    6.50    6.00
   4   6   5    1.00    6.80
  -4   6  -5    9.00    4.30
   6  -6   5   84.69   12.80
   6  -6   5   91.69   12.30
   6  -6   5  125.79   19.00
  -6   6  -5   75.89   12.60
   6   6   5   84.99   14.20
   6   6   5  100.99   15.70
   6   6   5   97.59   15.60
  -5  -7   5    1.90    6.60
   5   7  -5    5.40    9.20
   5   7  -5   -8.50   10.30
  -5   7   5    1.80    8.10
   5   7  -5   10.80    7.50
   5   7  -5   -3.70    5.20
   3  -7  -5   15.60    4.80
  -3  -7   5   21.90    6.20
   3   7  -5    6.70    8.80
   3   7  -5   -3.50    5.50
  -3   7   5    5.60    7.80
   3   7  -5   21.20    7.50
   3   7  -5    0.30    7.40
  -3   7   5   17.10    8.40
  -3   7   5    3.90    6.00
   3   7  -5   -8.00    9.30
   1  -7  -5    8.90    4.60
  -1  -7   5   15.70    5.90
  -1   7   5    2.40    8.00
   1   7  -5   -2.30    9.50
  -1   7   5    7.40    7.70
   1   7  -5   -1.10    6.10
  -1   7   5   -5.50    5.70
   1   7  -5   -4.20    5.60
   1   7  -5    8.80    8.70
   1   7  -5    1.40    8.90
   1  -7   5   40.40    6.60
  -1   7  -5   47.70   10.80
   1   7   5   24.20    9.20
   1   7   5   28.60    7.00
  -1   7  -5   29.00    7.90
   1   7   5   31.20    9.10
  -1   7  -5   30.80   10.30
  -1   7  -5   47.00    8.60
  -3  -7  -5  -11.70    6.00
   3  -7   5    5.10    6.50
   3   7   5    4.40    7.30
   3   7   5   -2.10    9.00
  -3   7  -5    7.20    7.80
  -3   7  -5   -9.80   10.40
  -3   7  -5   -2.20   11.10
  -3   7  -5    7.70    5.80
   3   7   5    0.80    9.20
  14   0  -6   35.10    6.50
  14   0  -6   42.90    6.90
  14   0  -6   29.70    5.00
  12   0  -6   11.30    3.60
  12   0  -6    8.40    3.90
  12   0  -6   18.40    3.70
  12   0  -6   12.10    3.30
  10   0  -6   16.60    2.70
  10   0  -6   10.00    3.00
  10   0  -6   19.90    3.30
   8   0  -6  958.00   45.70
   8   0  -6  982.40   45.80
   6   0  -6    6.80    1.60
   6   0  -6    5.00    1.20
   6   0  -6    7.10    1.60
   6   0  -6    5.30    1.30
   4   0  -6   27.60    2.80
   4   0  -6   33.80    2.90
   4   0  -6   30.30    2.80
  -4   0   6   30.50    3.00
   4   0  -6   28.90    2.50
   2   0  -6   94.79    5.90
   2   0  -6  106.89    6.00
  -2   0   6  100.79    5.70
   2   0  -6  105.29    5.60
  -2   0   6   86.79    5.90
   2   0  -6  105.39    6.10
   0   0  -6  176.28    9.10
   0   0  -6  178.78    9.60
   0   0   6  166.18    9.10
   0   0  -6  178.98    9.70
   0   0   6  181.98    9.70
   0   0   6  184.38    9.60
   0   0  -6  166.38    9.70
   2   0   6   -1.50    1.30
  -2   0  -6    3.60    2.10
  -2   0  -6    2.40    1.40
   2   0   6    3.80    2.30
   2   0   6   -0.60    2.10
  -2   0  -6    1.50    1.80
  -2   0  -6    5.40    2.30
   2   0   6    1.80    1.80
   2   0   6    2.10    1.20
   4   0   6    4.80    2.80
  -4   0  -6    3.40    2.80
   4   0   6    3.40    1.60
  -4   0  -6    1.10    1.50
  -4   0  -6    3.10    2.20
   4   0   6    1.60    1.90
  -4   0  -6    2.30    3.10
   4   0   6    1.20    2.40
   4   0   6    4.90    3.10
   6   0   6   42.70    5.20
  -6   0  -6   39.60    7.70
  -6   0  -6   36.60    4.90
   6   0   6   46.80    9.60
   6   0   6   46.70    3.90
   6   0   6   39.20    6.30
  -6   0  -6   45.50    4.00
  -6   0  -6   32.60    5.60
   6   0   6   56.59    8.00
   8   0   6    1.00    5.00
  -8   0  -6   10.10    4.00
   8   0   6    2.10    5.80
   8   0   6    5.30    5.10
   8   0   6    3.00    4.90
   8   0   6    3.20    3.70
  10   0   6   23.90    6.60
  10   0   6   10.70    8.70
  10   0   6   29.80    8.10
  10   0   6   15.50    8.40
  13  -1  -6    0.30    3.70
  13  -1  -6   -1.70    4.40
  13  -1  -6    8.00    3.60
  13   1  -6   11.40    3.50
  13   1  -6    4.00    4.20
  11  -1  -6   77.09    6.30
  11  -1  -6   80.49    6.60
  11  -1  -6   91.69    7.00
  11   1  -6   77.59    7.00
  11   1  -6   76.69    7.60
  11   1  -6   76.79    5.80
   9  -1  -6   46.00    4.30
   9   1  -6   48.00    3.90
   9   1  -6   50.29    4.60
   9   1  -6   43.00    4.70
   7  -1  -6  547.35   25.50
   7  -1  -6  554.84   25.50
  -7  -1   6  520.45   25.90
   7  -1  -6  527.75   25.80
   7   1  -6  536.45   25.70
   7   1  -6  521.05   25.70
  -5  -1   6  420.36   19.60
   5  -1  -6  405.06   19.60
   5  -1  -6  420.56   19.60
   5  -1  -6  412.96   19.80
  -5  -1   6  345.57   19.30
   5  -1  -6  391.76   19.70
   5   1  -6  426.06   19.50
   5   1  -6  408.36   19.50
   5   1  -6  399.56   19.60
   3  -1  -6   61.29    4.10
  -3  -1   6   65.39    4.20
   3  -1  -6   67.59    4.40
  -3  -1   6   54.19    4.60
  -3  -1   6   59.79    4.10
   3  -1  -6   68.19    4.70
  -3  -1   6   64.89    4.00
   3  -1  -6   69.49    4.80
  -3  -1   6   66.49    4.50
  -3   1   6   61.99    4.50
  -3   1   6   61.69    4.20
   3   1  -6   69.39    4.50
   3   1  -6   69.39    4.50
  -3   1   6   72.79    4.60
   3   1  -6   64.59    4.40
   3   1  -6   65.59    4.10
  -1  -1   6  257.77   13.90
   1  -1  -6  288.87   13.90
   1  -1  -6  270.87   14.00
  -1  -1   6  275.57   13.40
   1  -1  -6  270.97   13.30
   1  -1  -6  253.37   13.90
  -1  -1   6  282.37   14.00
  -1  -1   6  256.67   13.60
   1   1  -6  281.07   13.90
   1   1  -6  258.37   13.80
   1   1  -6  262.37   13.30
   1   1  -6  282.87   13.80
  -1   1   6  272.37   13.80
  -1   1   6  254.77   13.80
  -1   1   6  261.17   13.70
   1  -1   6  435.66   20.70
  -1  -1  -6  427.46   20.70
  -1  -1  -6  415.16   20.50
  -1  -1  -6  362.26   21.10
   1  -1   6  419.76   19.60
   1  -1   6  401.66   20.60
   1  -1   6  428.16   19.90
  -1  -1  -6  417.36   20.70
  -1  -1  -6  412.96   19.70
  -1   1  -6  400.36   19.90
   1   1   6  420.06   20.60
  -1   1  -6  439.06   20.60
   1   1   6  384.96   20.30
  -1   1  -6  414.96   20.50
   1   1   6  370.86   20.30
  -1   1  -6  394.76   20.40
  -3  -1  -6    1.00    1.70
   3  -1   6    0.70    1.90
  -3  -1  -6    0.50    2.80
   3  -1   6   -1.00    2.50
  -3  -1  -6    1.30    2.70
   3  -1   6   -0.80    1.60
  -3  -1  -6    0.10    2.30
  -3  -1  -6    0.90    1.30
   3  -1   6    0.60    2.90
   3   1   6    0.80    2.00
  -3   1  -6    0.00    2.00
  -3   1  -6   -1.30    2.50
   3   1   6    0.10    2.10
  -3   1  -6   -1.30    1.40
   3   1   6    1.10    2.50
  -3   1  -6    2.30    3.40
   3   1   6    0.60    1.60
   5  -1   6   39.20    3.90
  -5  -1  -6   34.70    4.90
  -5  -1  -6   38.60    6.40
   5  -1   6   47.60    8.10
   5  -1   6   40.30    6.30
  -5  -1  -6   39.10    3.40
  -5  -1  -6   30.00    5.80
   5  -1   6   36.50    4.40
   5  -1   6   44.00    5.60
  -5   1  -6   36.40    5.90
   5   1   6   41.80    6.20
  -5   1  -6   41.40    3.90
   5   1   6   44.20    5.00
  -5   1  -6   47.90    5.70
  -5   1  -6   45.80    7.00
  -5   1  -6   44.90    4.10
   5   1   6   46.50    5.80
   5   1   6   36.60    7.40
  -7  -1  -6   -0.30    3.40
   7  -1   6    0.50    3.10
   7  -1   6    5.70    4.90
  -7  -1  -6   -6.70    6.40
   7  -1   6    2.50    3.90
   7  -1   6    3.00    2.60
  -7  -1  -6    3.70    6.20
   7  -1   6    1.40    4.80
   7   1   6   -6.40    4.00
   7   1   6   -4.10    4.10
   7   1   6   -0.40    4.60
  -7   1  -6    4.60    6.00
   7   1   6    1.20    4.50
   7   1   6    2.50    3.80
  -7   1  -6    1.30    2.70
   9  -1   6   23.80    7.60
   9  -1   6   26.20    6.50
   9   1   6   29.10    5.80
   9   1   6   33.00    7.00
   9   1   6   26.20    7.10
   9   1   6   46.20    8.90
  12  -2  -6   13.80    3.90
  12  -2  -6   11.60    5.00
  12  -2  -6   10.20    3.70
  12  -2  -6    6.80    4.70
  12   2  -6   10.20    3.60
  12   2  -6    7.30    3.30
  10  -2  -6   12.00    3.00
  10  -2  -6   13.00    3.00
  10  -2  -6   17.30    3.20
  10   2  -6   12.90    3.20
  10   2  -6   10.00    5.00
  10   2  -6   14.80    2.70
   8  -2  -6  828.82   39.70
  -8  -2   6  840.62   40.40
   8  -2  -6  879.71   40.00
   8  -2  -6  825.72   39.70
   8   2  -6  832.52   39.50
   8   2  -6  823.72   40.70
   8   2  -6  842.52   39.80
  -6  -2   6    2.50    1.70
   6  -2  -6    3.60    2.50
   6  -2  -6    5.10    1.80
  -6  -2   6    2.90    1.70
   6  -2  -6    4.00    2.30
   6   2  -6    5.10    1.60
  -6   2   6    2.60    2.00
   6   2  -6    7.00    1.70
   6   2  -6    4.30    2.00
   6   2  -6    4.00    1.50
   4  -2  -6   22.10    3.60
  -4  -2   6   19.40    3.20
   4  -2  -6   27.40    3.40
  -4  -2   6   17.70    2.40
   4  -2  -6   20.10    3.20
  -4  -2   6   28.70    3.40
  -4  -2   6   21.20    2.80
   4   2  -6   23.40    2.90
   4   2  -6   21.10    2.60
  -4   2   6   17.20    3.30
   4   2  -6   23.00    3.00
  -4   2   6   21.50    2.60
  -4   2   6   19.10    3.80
   4   2  -6   18.50    2.90
   2  -2  -6   78.29    6.60
  -2  -2   6   79.39    5.70
   2  -2  -6   84.29    5.40
  -2  -2   6   80.59    5.30
   2  -2  -6   84.29    4.90
  -2  -2   6   77.49    5.80
  -2  -2   6   85.09    5.10
   2  -2  -6   77.39    6.00
   2  -2  -6   78.29    5.80
   2   2  -6   77.49    5.70
  -2   2   6   86.49    5.70
   2   2  -6   81.89    5.50
   2   2  -6   77.59    5.50
  -2   2   6   87.79    5.80
   2   2  -6   78.49    5.00
  -2   2   6   90.49    5.40
   0  -2   6  122.69    8.20
   0  -2  -6  152.98    8.60
   0  -2  -6  138.79    7.10
   0  -2  -6  133.39    7.70
   0  -2   6  142.39    7.40
   0  -2  -6  133.69    8.30
   0  -2  -6  117.69    7.90
   0  -2   6  122.89    8.20
   0  -2   6  132.39    7.90
   0   2   6  129.19    7.70
   0   2   6  127.59    8.30
   0   2  -6  125.69    7.90
   0   2  -6  132.09    8.20
   0   2  -6  130.39    7.30
   0   2  -6  135.79    8.00
   0   2   6  131.89    8.20
  -2  -2  -6    3.30    2.30
   2  -2   6    4.30    2.50
   2  -2   6    3.70    1.70
  -2  -2  -6    0.90    2.70
   2  -2   6    4.60    1.70
  -2  -2  -6    3.00    2.90
  -2  -2  -6    1.80    2.00
   2  -2   6    1.50    2.60
  -2  -2  -6    3.80    1.30
   2  -2   6    1.10    2.10
   2   2   6    4.00    2.60
  -2   2  -6    0.00    1.40
   2   2   6    5.20    2.30
   2   2   6    3.20    2.30
  -2   2  -6    3.40    2.20
  -2   2  -6    2.90    2.60
  -2   2  -6    6.20    2.60
  -4  -2  -6    3.80    1.50
  -4  -2  -6    1.10    3.60
  -4  -2  -6   -0.80    3.40
   4  -2   6   -2.10    2.00
  -4  -2  -6   -3.50    2.40
  -4  -2  -6    3.30    2.90
   4  -2   6    0.10    3.10
   4  -2   6    1.70    2.60
   4  -2   6    0.00    3.30
   4  -2   6    2.50    1.90
  -4   2  -6   -2.40    3.10
   4   2   6    1.30    2.90
   4   2   6    2.50    2.10
  -4   2  -6    0.40    2.60
   4   2   6    1.30    2.50
  -4   2  -6    2.90    2.00
   4   2   6    0.10    2.90
  -6  -2  -6   36.70    6.30
   6  -2   6   33.50    5.30
   6  -2   6   28.40    5.50
   6  -2   6   45.00    7.60
   6  -2   6   34.30    4.50
   6  -2   6   32.70    4.50
  -6   2  -6   31.30    4.10
  -6   2  -6   30.50    5.70
   6   2   6   27.80    4.90
   6   2   6   23.60    5.40
  -6   2  -6   31.60    5.90
  -6   2  -6   30.00    5.70
   6   2   6   30.00    5.30
   6   2   6   33.10    5.80
   8  -2   6   -2.30    4.30
   8  -2   6   -2.50    6.60
   8  -2   6    7.90    5.60
   8  -2   6    8.90    3.90
  -8   2  -6    4.30    5.70
   8   2   6   -0.40    5.80
   8   2   6   -7.60    5.20
   8   2   6    2.80    5.70
   8   2   6   -3.90    6.00
  13  -3  -6   -8.00    6.00
  13   3  -6    5.50    6.30
  13   3  -6   10.20    5.20
  11  -3  -6   66.39    7.70
  11  -3  -6   54.69    8.00
  11   3  -6   56.49    6.10
  11   3  -6   71.09    8.10
   9  -3  -6   23.90    4.30
  -9  -3   6   22.20    4.30
   9  -3  -6   25.50    4.20
   9  -3  -6   23.90    3.70
   9  -3  -6   23.60    3.80
  -9   3   6   22.00    3.90
   9   3  -6   26.80    4.20
   9   3  -6   33.80    5.40
   9   3  -6   23.40    4.40
  -7  -3   6  372.56   19.60
  -7  -3   6  409.16   19.10
   7  -3  -6  374.76   19.60
   7  -3  -6  360.56   19.00
   7  -3  -6  424.76   19.70
   7  -3  -6  389.96   19.30
   7  -3  -6  373.36   19.70
   7   3  -6  379.86   19.20
  -7   3   6  372.56   19.10
   7   3  -6  392.06   20.20
  -7   3   6  367.06   19.30
   7   3  -6  386.06   18.70
   7   3  -6  374.96   19.00
  -5  -3   6  238.38   12.00
   5  -3  -6  238.48   12.80
   5  -3  -6  230.08   13.00
  -5  -3   6  238.58   12.50
   5  -3  -6  233.08   12.30
  -5  -3   6  226.98   12.40
   5  -3  -6  214.78   13.00
   5   3  -6  231.98   12.60
  -5   3   6  231.38   11.90
  -5   3   6  219.38   11.80
  -5   3   6  206.38   12.40
   5   3  -6  228.38   12.10
   5   3  -6  254.37   13.10
  -5   3   6  244.08   11.90
   5   3  -6  249.88   12.30
   3  -3  -6   32.70    5.00
  -3  -3   6   37.40    3.50
  -3  -3   6   38.20    3.60
  -3  -3   6   38.80    4.70
   3  -3  -6   41.20    3.80
  -3  -3   6   37.40    3.60
   3  -3  -6   40.40    5.00
  -3  -3   6   29.80    6.20
   3  -3  -6   42.20    4.50
  -3   3   6   37.10    3.70
   3   3  -6   38.60    3.50
   3   3  -6   31.70    4.10
  -3   3   6   39.90    3.80
   3   3  -6   32.30    4.60
  -3   3   6   39.50    4.70
  -3   3   6   40.70    4.80
   3   3  -6   39.00    3.90
   3   3  -6   40.00    4.20
  -1  -3   6  128.29    8.90
   1  -3  -6  136.79    8.50
  -1  -3   6  145.19    8.50
   1  -3  -6  153.88   12.70
  -1  -3   6  140.59    9.20
   1  -3  -6  137.59    8.90
  -1  -3   6  149.59    7.70
   1  -3  -6  145.19    9.20
  -1  -3   6  158.28    8.50
   1   3  -6  143.59    9.00
  -1   3   6  140.99    8.00
  -1   3   6  137.49    9.00
   1   3  -6  143.09    8.60
   1   3  -6  144.69    8.10
   1   3  -6  140.69    8.50
   1   3  -6  140.69    8.50
  -1   3   6  125.69    9.00
  -1   3   6  154.28    8.50
  -1  -3  -6  260.67   13.70
   1  -3   6  274.87   14.10
  -1  -3  -6  312.27   15.70
   1  -3   6  276.07   14.80
  -1  -3  -6  281.17   15.10
   1  -3   6  272.87   15.30
   1  -3   6  301.57   15.50
   1  -3   6  272.47   13.90
  -1  -3  -6  244.98   15.20
  -1   3  -6  270.87   15.10
   1   3   6  278.57   14.70
  -1   3  -6  270.67   14.20
  -1   3  -6  262.37   14.70
  -1   3  -6  261.27   14.40
  -1   3  -6  265.57   13.90
   1   3   6  273.27   15.00
   1   3   6  305.57   15.40
  -3  -3  -6   -0.40    3.90
   3  -3   6    1.20    2.20
  -3  -3  -6    4.40    1.50
   3  -3   6    6.50    3.60
   3  -3   6    3.50    2.50
  -3  -3  -6   -2.90    3.40
   3  -3   6    2.50    3.60
   3  -3   6    6.20    2.90
   3   3   6    3.20    2.90
  -3   3  -6    5.70    2.10
  -3   3  -6    3.00    2.20
   3   3   6   10.20    3.50
   3   3   6    2.80    4.00
  -3   3  -6    5.20    3.30
  -3   3  -6    2.10    4.00
   5  -3   6   38.30    5.00
  -5  -3  -6   30.60    6.50
  -5  -3  -6   48.00    8.40
   5  -3   6   31.90    5.70
   5  -3   6   49.00    6.60
  -5  -3  -6   28.40    6.20
   5  -3   6   38.20    6.80
  -5  -3  -6   40.80    6.10
   5  -3   6   45.60    9.70
   5   3   6   49.90    5.80
  -5   3  -6   40.40    7.10
  -5   3  -6   53.29    5.00
   5   3   6   48.50    7.70
   5   3   6   42.10    7.60
  -5   3  -6   41.80    5.50
   5   3   6   53.39    7.00
  -5   3  -6   43.00    8.00
  -5   3  -6   41.10    6.30
  -7  -3  -6    9.60    6.70
   7  -3   6    9.20    6.20
   7  -3   6   -2.60    4.50
   7  -3   6    9.40    6.40
   7  -3   6    1.60    5.00
   7   3   6    5.90    4.90
   7   3   6    4.50    6.10
   7   3   6    8.30    5.00
   7   3   6    7.10    5.40
   9  -3   6   25.00    9.40
   9  -3   6   32.30   13.60
   9  -3   6   28.50    8.40
   9  -3   6   23.10    7.50
   9   3   6   12.10    8.50
   9   3   6   14.00    9.70
   9   3   6   25.10    9.00
  12  -4  -6    4.70    5.80
  12   4  -6    2.60    5.70
  10  -4  -6    5.80    4.30
  10  -4  -6   12.60    4.00
  10  -4  -6    6.70    4.90
  10  -4  -6    9.20    4.10
 -10  -4   6    6.70    4.60
 -10   4   6    7.40    5.60
  10   4  -6    8.30    4.90
  10   4  -6   13.40    4.40
  10   4  -6    6.60    4.30
  10   4  -6    9.70    3.60
  10   4  -6    0.70    4.40
   8  -4  -6  538.35   26.50
   8  -4  -6  518.85   26.60
  -8  -4   6  568.74   27.40
   8  -4  -6  533.65   27.30
   8   4  -6  500.05   27.50
   8   4  -6  550.94   26.30
   8   4  -6  549.74   26.70
  -8   4   6  560.04   26.90
  -8   4   6  528.05   26.60
   8   4  -6  494.95   26.20
  -6  -4   6    0.30    2.70
   6  -4  -6    1.90    2.90
  -6  -4   6    1.80    2.70
   6  -4  -6    2.10    3.60
   6  -4  -6    1.10    3.60
   6  -4  -6    0.50    3.40
   6  -4  -6   -1.20    2.70
  -6   4   6    6.50    2.10
   6   4  -6   -1.00    2.70
   6   4  -6    0.20    2.40
  -6   4   6   -5.20    3.10
  -6   4   6    7.60    4.10
   6   4  -6   -1.40    2.40
  -6   4   6    1.70    2.40
   6   4  -6   -2.20    3.30
   6   4  -6    2.60    3.10
  -6   4   6    5.40    2.50
  -4  -4   6    9.20    2.80
   4  -4  -6   11.00    4.00
  -4  -4   6    6.00    3.30
   4  -4  -6    1.40    2.60
   4  -4  -6   10.00    3.70
  -4  -4   6   -0.60    3.50
   4  -4  -6    7.10    3.50
  -4  -4   6    4.00    3.60
  -4   4   6    5.60    3.20
  -4   4   6   13.40    4.30
   4   4  -6    4.40    3.20
   4   4  -6    8.90    3.40
  -4   4   6    5.10    2.50
   4   4  -6    8.40    2.50
  -4   4   6    8.40    3.40
  -4   4   6    5.40    2.50
   4   4  -6    5.60    2.60
   4   4  -6    8.70    2.40
   2  -4  -6   46.80    6.60
   2  -4  -6   40.70    5.00
  -2  -4   6   43.20    5.90
  -2  -4   6   52.29    6.50
  -2  -4   6   49.30    4.80
   2  -4  -6   49.60    6.90
   2  -4  -6   52.39    6.20
  -2   4   6   41.50    5.10
   2   4  -6   38.00    4.30
   2   4  -6   41.00    5.90
   2   4  -6   40.20    3.90
   2   4  -6   43.30    4.70
  -2   4   6   43.80    6.00
  -2   4   6   45.00    5.70
   2   4  -6   36.30    5.50
   2   4  -6   54.79    5.80
  -2   4   6   49.30    5.00
   0  -4   6   69.89    5.50
   0  -4   6   61.19    5.80
   0  -4  -6   61.19    7.60
   0  -4   6   71.59    7.40
   0  -4   6   87.39    8.00
   0   4   6   65.49    6.30
   0   4   6   73.09    7.20
   0   4  -6   65.99    6.70
   0   4  -6   81.79    7.50
   0   4   6   57.49    6.90
   0   4   6   57.69    6.00
   0   4  -6   72.39    5.70
   0   4  -6   68.39    5.30
  -2  -4  -6    6.10    2.20
  -2  -4  -6   13.20    4.80
   2  -4   6   10.10    2.70
   2  -4   6    2.50    2.70
   2  -4   6   13.30    4.90
  -2  -4  -6    5.70    4.70
   2  -4   6   10.90    4.90
  -2  -4  -6    2.70    3.30
   2  -4   6    8.40    3.00
  -2   4  -6    3.70    4.70
  -2   4  -6    6.10    3.60
   2   4   6    9.10    4.30
  -2   4  -6    3.40    2.50
  -2   4  -6    3.60    3.70
   2   4   6    7.20    3.60
  -2   4  -6   13.90    3.00
  -2   4  -6   10.20    3.00
  -4  -4  -6    1.20    6.60
   4  -4   6    0.30    5.50
  -4  -4  -6    8.00    6.10
   4  -4   6    2.90    3.10
   4  -4   6   -5.90    3.80
  -4  -4  -6   -1.30    5.30
   4  -4   6   -5.10    4.90
  -4  -4  -6    3.30    4.60
   4   4   6   -4.00    3.30
  -4   4  -6   -8.60    5.00
   4   4   6    1.00    4.60
   4   4   6    7.90    5.20
  -4   4  -6    1.40    2.90
  -4   4  -6   -6.00    4.30
  -4   4  -6    1.90    5.90
   6  -4   6   18.20    6.90
  -6  -4  -6   29.00    7.40
   6  -4   6   12.80    5.60
   6  -4   6   25.20    4.90
   6   4   6   20.00    6.00
   6   4   6   14.00    6.70
   6   4   6   16.90    6.40
   8  -4   6    0.10    9.80
   8  -4   6    0.10   10.20
   8  -4   6    7.20    7.60
   8  -4   6  -10.10    6.50
   8   4   6   -4.20    8.50
   8   4   6   -2.00    8.20
  11  -5  -6   27.40    7.10
   9  -5  -6    2.40    4.90
  -9  -5   6   -0.60    4.70
  -9  -5   6   19.40    5.00
   9  -5  -6    8.40    5.30
   9   5  -6    7.00    5.30
   9   5  -6   22.10    7.50
  -9   5   6    3.10    8.20
   9   5  -6   14.20    4.20
   9   5  -6    8.40    5.00
   9   5  -6   12.20    5.50
   7  -5  -6  198.58   12.60
   7  -5  -6  218.28   13.00
  -7  -5   6  211.48   13.10
   7  -5  -6  192.48   14.20
  -7  -5   6  211.98   12.00
  -7   5   6  177.48   12.60
   7   5  -6  215.98   12.30
   7   5  -6  202.38   12.70
   7   5  -6  200.08   13.10
   7   5  -6  223.68   14.60
   7   5  -6  203.38   13.30
   7   5  -6  215.78   13.80
   7   5  -6  215.58   12.00
  -7   5   6  203.58   13.80
   5  -5  -6   98.59    9.20
   5  -5  -6   92.19   10.30
   5  -5  -6   88.49   10.40
  -5  -5   6   95.09    7.50
  -5  -5   6   96.09    7.70
   5  -5  -6   98.99    8.30
  -5   5   6   92.69   11.30
  -5   5   6   89.09    8.90
   5   5  -6  112.09    8.60
  -5   5   6   96.29    7.50
  -5   5   6   98.79    8.50
  -5   5   6  111.59    8.20
   5   5  -6   91.79    7.10
   5   5  -6   80.59   10.10
   5   5  -6   77.49    7.80
   5   5  -6   98.79    9.40
   5   5  -6   95.39    7.20
   5   5  -6   91.09    8.40
   3  -5  -6   17.10    4.30
  -3  -5   6   11.70    3.30
   3  -5  -6   14.60    5.70
   3  -5  -6   10.30    4.60
  -3  -5   6   27.90    4.70
  -3  -5   6   15.70    4.90
   3  -5  -6   15.90    5.40
  -3   5   6   10.30    3.70
   3   5  -6   12.60    4.20
   3   5  -6   18.10    3.80
   3   5  -6   22.70    3.20
   3   5  -6   12.90    4.70
  -3   5   6   15.70    4.90
   3   5  -6   15.90    3.10
   3   5  -6   20.00    5.10
  -3   5   6   10.00    5.10
  -1  -5   6   42.40    8.30
  -1  -5   6   43.20    5.40
  -1  -5   6   56.99    9.20
   1  -5  -6   50.29    8.10
   1  -5  -6   47.00    7.30
   1  -5  -6   36.70    6.90
  -1  -5   6   58.39    5.70
  -1   5   6   58.39    7.90
  -1   5   6   50.49    7.40
   1   5  -6   49.80    7.90
   1   5  -6   44.60    5.30
   1   5  -6   59.29    5.30
  -1   5   6   49.99    6.50
   1   5  -6   67.19    8.10
  -1   5   6   61.59    8.00
   1   5  -6   43.30    8.40
   1  -5   6  175.28   11.00
   1  -5   6  130.69    9.70
  -1  -5  -6  141.59   13.60
   1  -5   6  173.68   15.30
   1  -5   6  177.48   10.30
  -1  -5  -6  162.18   13.60
  -1  -5  -6  154.48   12.40
   1   5   6  133.49   11.60
   1   5   6  161.88   11.00
   1   5   6  181.08   12.20
  -1   5  -6  157.28   10.20
  -1   5  -6  175.88   10.10
  -1   5  -6  169.78   11.50
  -1   5  -6  155.18   10.00
   1   5   6  135.89   11.00
   3  -5   6    3.10    4.40
   3  -5   6    0.50    5.70
  -3  -5  -6    2.50    2.60
   3  -5   6    0.60    3.90
   3  -5   6   -3.70    6.50
  -3   5  -6   -1.40    4.20
   3   5   6    0.50    5.10
  -3   5  -6   -1.00    3.70
   3   5   6    8.80    6.00
   3   5   6    0.50    4.80
  -3   5  -6    0.30    6.60
   5  -5   6   30.80    8.00
   5  -5   6   23.00    9.20
   5  -5   6   28.00    6.20
   5  -5   6   35.20    6.00
   5   5   6   28.70    7.80
   5   5   6   32.40    7.50
  -5   5  -6   37.70    5.30
   5   5   6   54.19   10.90
   7  -5   6    4.40    7.20
   8  -6  -6  289.97   17.90
  -8  -6   6  306.97   18.50
   8   6  -6  273.17   19.10
   8   6  -6  274.07   20.20
   8   6  -6  287.07   18.60
   8   6  -6  303.87   19.20
   8   6  -6  292.27   16.70
  -6  -6   6   -5.00    4.50
   6  -6  -6   15.80    6.20
   6   6  -6    3.50    5.70
   6   6  -6   -4.80    7.20
   6   6  -6    7.70    7.00
   6   6  -6   -5.60    4.30
  -6   6   6    6.60    7.80
  -6   6   6    2.40    5.90
   6   6  -6   -3.00    4.00
   6   6  -6   -7.50    5.00
  -6   6   6   12.40    5.60
   4  -6  -6   -3.60    7.90
  -4  -6   6    6.10    4.40
   4   6  -6   11.70    7.00
  -4   6   6    4.70    6.30
  -4   6   6   -3.20    5.50
  -4   6   6    7.20    4.40
   4   6  -6    0.80    4.30
   4   6  -6   -8.20    6.10
   4   6  -6   -6.00    4.10
   4   6  -6   -0.10    3.80
  -4   6   6    6.30    6.20
   4   6  -6    7.10    6.40
   4   6  -6    5.70    6.10
  -2  -6   6   22.10    4.70
   2  -6  -6   24.00    8.50
   2  -6  -6   23.90    7.30
   2   6  -6   17.70    4.40
  -2   6   6   21.90    5.20
  -2   6   6   22.40    7.00
   2   6  -6   12.20    7.10
  -2   6   6   16.20    6.50
  -2   6   6   25.80    6.40
   2   6  -6   17.80    5.00
   2   6  -6   22.40    4.30
   0  -6   6   17.60    7.70
   0  -6   6   31.00    8.80
   0  -6   6   40.00    7.00
   0  -6  -6   31.40    9.10
   0   6   6   24.80    6.90
   0   6  -6   33.90    5.50
   0   6   6   27.90    5.70
   0   6   6   48.80   10.30
   0   6  -6   33.10    5.90
   2  -6   6   22.70    8.00
   2  -6   6    8.50    5.20
   2  -6   6   10.10    5.10
   2   6   6   -0.40    6.60
  -2   6  -6   27.40    9.50
   2   6   6    4.80    7.20
   2   6   6   -1.00    5.00
  -2   6  -6   10.80    5.00
   4  -6   6    8.80    7.30
   4  -6   6    4.20    6.00
   4  -6   6   10.80   11.10
   4   6   6   11.60    8.50
   4   6   6    8.40    7.40
  -5  -7   6   24.20    7.80
   5   7  -6   11.10    9.40
   5   7  -6   34.80    8.30
  -5   7   6   18.30    6.90
   5   7  -6   30.00    7.40
   5   7  -6   31.40   10.80
  -5   7   6   25.10    9.90
  -3  -7   6   14.30    6.40
  -3   7   6   17.10    8.70
   3   7  -6   13.20    7.60
   3   7  -6   20.40   10.10
  -3   7   6    6.50    6.10
   3   7  -6    3.40    6.30
   3   7  -6   13.90    9.30
   1  -7  -6   12.30   15.90
   1   7  -6   25.10    7.70
   1   7  -6   20.80   10.30
   1   7  -6   31.70   10.10
  -1   7   6   -1.20   10.20
  -1   7   6    4.70    8.60
   1   7  -6    8.90    5.90
  -1   7   6   18.70    6.60
   1  -7   6   84.79   11.70
   1   7   6   80.99   16.00
  -1   7  -6   73.59   13.00
   1   7   6   94.39   12.30
  -1   7  -6   53.79   10.50
   1   7   6   77.79   15.70
  12   0  -7   97.49    9.10
  12   0  -7  102.89    9.50
  12   0  -7  101.49    7.40
  10   0  -7    4.00    3.10
  10   0  -7    2.90    2.50
  10   0  -7    0.10    2.50
   8   0  -7    1.10    1.70
   8   0  -7   -2.30    1.40
   8   0  -7    0.30    1.50
   6   0  -7   51.69    4.40
   6   0  -7   47.10    3.80
   6   0  -7   50.09    3.90
  -4   0   7    4.80    1.40
   4   0  -7    9.10    2.00
   4   0  -7    5.90    1.70
  -4   0   7    7.60    2.00
   4   0  -7    8.40    1.80
   4   0  -7    5.80    2.00
  -4   0   7    4.90    2.10
   2   0  -7  211.08   11.70
   2   0  -7  221.18   11.10
  -2   0   7  197.38   11.40
   2   0  -7  226.58   11.50
  -2   0   7  195.98   11.30
   2   0  -7  247.88   11.80
   0   0   7 1630.24   73.59
   0   0  -7 1595.74   73.09
   0   0  -7 1538.65   73.59
   0   0   7 1532.55   73.59
   0   0  -7 1684.03   73.79
   0   0  -7 1482.05   73.79
   0   0   7 1499.85   73.69
  -2   0  -7    0.20    1.50
   2   0   7   -3.20    3.00
  -2   0  -7   -1.40    3.00
   2   0   7    0.60    1.70
   2   0   7    0.60    1.70
  -2   0  -7    2.40    2.40
   2   0   7    0.90    2.80
   2   0   7    0.90    2.20
  -2   0  -7   -3.70    2.50
   4   0   7   -0.30    3.80
   4   0   7    2.30    2.80
  -4   0  -7   -1.60    1.90
  -4   0  -7   -4.80    2.50
   4   0   7   -0.90    2.00
  -4   0  -7    0.60    3.70
  -4   0  -7   -2.30    3.60
   4   0   7    2.10    2.40
  -6   0  -7    8.70    5.00
  -6   0  -7   23.60    5.00
  -6   0  -7    9.90    2.80
  -6   0  -7   13.30    3.70
   6   0   7   10.90    3.70
   6   0   7   12.40    4.50
   6   0   7   15.30    5.60
   8   0   7  113.69   13.20
   8   0   7  136.79   13.30
   8   0   7  112.09   10.30
   8   0   7  150.48   15.00
  -8   0  -7  110.69   13.50
  13  -1  -7   97.49    8.40
  13  -1  -7   88.29    8.50
  13   1  -7   90.29    7.80
  13   1  -7   92.69    9.40
  11  -1  -7   66.79    6.00
  11  -1  -7   62.59    6.50
  11   1  -7   61.99    6.80
  11   1  -7   61.89    6.30
   9  -1  -7    6.20    1.90
   9  -1  -7   -1.10    2.00
   9  -1  -7    1.00    2.30
   9   1  -7    2.50    2.30
   9   1  -7    2.90    2.60
   9   1  -7    2.60    2.10
   7  -1  -7   11.70    2.20
   7  -1  -7   11.90    2.30
  -7  -1   7   10.70    2.30
   7   1  -7   11.30    2.00
   7   1  -7   11.60    2.00
   5  -1  -7   12.50    2.50
   5  -1  -7    8.00    1.70
   5  -1  -7    6.90    2.40
   5  -1  -7    7.90    1.80
  -5  -1   7    9.30    2.40
  -5  -1   7    8.40    1.90
   5   1  -7    7.00    2.10
   5   1  -7    6.90    2.20
   5   1  -7   10.30    2.00
  -5   1   7    8.60    2.10
   5   1  -7    7.40    1.80
  -5   1   7    5.10    2.10
   3  -1  -7   -0.20    2.20
  -3  -1   7    2.30    2.00
  -3  -1   7    2.00    1.50
  -3  -1   7   -0.50    1.40
  -3  -1   7    2.50    1.40
   3  -1  -7    4.00    2.10
   3  -1  -7    1.40    1.70
  -3  -1   7    2.30    2.10
   3  -1  -7   -0.20    1.20
   3   1  -7    1.80    2.10
  -3   1   7    0.20    1.90
   3   1  -7    0.30    1.80
  -3   1   7    3.30    1.50
   3   1  -7    1.80    1.50
  -3   1   7    1.10    2.10
   1  -1  -7   15.70    3.00
   1  -1  -7   15.70    2.70
   1  -1  -7   12.40    2.70
  -1  -1   7   16.00    2.90
   1  -1  -7   14.60    2.10
  -1  -1   7   13.70    3.00
  -1  -1   7   14.90    3.10
  -1  -1   7   14.10    2.10
  -1   1   7   18.80    3.10
  -1   1   7   13.80    2.80
   1   1  -7   18.10    2.90
  -1   1   7   15.10    2.50
   1   1  -7   15.50    2.80
   1   1  -7   17.10    2.30
   1   1  -7   12.90    2.50
  -1  -1  -7  328.47   16.80
   1  -1   7  343.67   16.60
   1  -1   7  296.97   16.70
   1  -1   7  262.67   16.50
  -1  -1  -7  318.67   15.50
  -1  -1  -7  319.87   16.20
  -1  -1  -7  313.47   16.80
   1  -1   7  327.37   15.70
  -1   1  -7  310.77   15.70
   1   1   7  316.77   16.40
   1   1   7  317.67   16.40
  -1   1  -7  288.67   16.60
   1   1   7  324.77   16.70
  -1   1  -7  312.97   16.60
   3  -1   7  189.48    9.60
   3  -1   7  175.68   11.50
   3  -1   7  166.48   11.40
  -3  -1  -7  175.18   10.10
   3  -1   7  166.88   10.70
  -3  -1  -7  188.08    9.40
  -3  -1  -7  177.48   11.50
  -3  -1  -7  193.38   11.50
   3  -1   7  174.18    9.60
   3   1   7  186.88    9.60
   3   1   7  178.68   11.30
   3   1   7  166.58   10.90
   3   1   7  172.58   11.00
  -3   1  -7  178.98    9.70
  -3   1  -7  165.98   11.30
  -3   1  -7  171.78   11.20
  -5  -1  -7   24.60    5.90
  -5  -1  -7   11.00    2.40
   5  -1   7    7.30    2.60
   5  -1   7    8.70    4.70
   5  -1   7    1.50    3.40
  -5  -1  -7   13.80    4.80
   5  -1   7    7.00    3.00
   5  -1   7    9.30    4.40
  -5  -1  -7   14.80    4.60
  -5   1  -7   12.10    4.00
  -5   1  -7    4.90    4.50
  -5   1  -7   11.40    3.20
  -5   1  -7   10.70    2.80
   5   1   7   10.30    3.40
  -5   1  -7   12.50    4.70
   5   1   7    9.70    3.70
   5   1   7    7.50    4.40
   5   1   7   10.10    5.90
   7  -1   7   28.90    6.50
   7  -1   7   23.70    3.80
   7  -1   7   15.80    5.90
   7  -1   7   21.70    6.60
  -7  -1  -7   19.20    5.80
  -7  -1  -7   13.80    6.60
   7  -1   7   19.30    4.40
   7   1   7   23.00    5.90
  -7   1  -7   32.50    6.30
   7   1   7   12.80    7.00
  -7   1  -7   27.80    4.40
   7   1   7   26.50    5.50
   7   1   7   22.40    6.20
   7   1   7   21.50    6.50
   9  -1   7   18.80    8.20
   9  -1   7   21.20   13.20
   9  -1   7    1.90    9.40
   9  -1   7   13.60    6.60
   9   1   7    9.50    6.30
   9   1   7   22.20    8.80
   9   1   7    5.70    8.50
   9   1   7   42.80   14.50
  12  -2  -7  107.99    9.10
  12  -2  -7   78.99    8.00
  12  -2  -7   83.69    8.20
  12   2  -7  100.19    9.40
  12   2  -7   90.39    7.60
  10  -2  -7   12.20    3.30
  10  -2  -7    0.30    2.60
  10  -2  -7    0.40    2.70
  10   2  -7    5.80    3.20
  10   2  -7    1.80    2.60
   8  -2  -7    1.30    2.70
  -8  -2   7    2.40    2.70
   8  -2  -7    3.00    3.20
   8   2  -7    2.60    2.10
   8   2  -7   -1.80    2.50
   6  -2  -7   36.10    4.30
  -6  -2   7   41.30    4.20
   6  -2  -7   43.60    4.80
  -6  -2   7   45.30    4.60
   6  -2  -7   41.30    3.90
   6  -2  -7   39.60    5.00
  -6  -2   7   47.00    4.20
   6   2  -7   42.30    3.90
   6   2  -7   47.70    4.00
  -6   2   7   43.50    4.40
   6   2  -7   41.30    4.70
   6   2  -7   46.70    3.90
   4  -2  -7    2.00    2.00
   4  -2  -7    1.90    2.40
  -4  -2   7    2.40    1.70
   4  -2  -7    3.40    1.60
   4  -2  -7    1.60    2.60
  -4  -2   7    5.40    1.80
  -4  -2   7    2.90    1.50
  -4  -2   7    3.50    2.60
  -4   2   7    1.10    2.00
   4   2  -7    2.10    1.80
  -4   2   7    3.10    1.70
   4   2  -7    1.80    1.80
   4   2  -7    4.90    2.10
  -4   2   7    3.80    2.40
   4   2  -7    1.20    2.20
  -2  -2   7  176.38    9.90
   2  -2  -7  181.78   10.70
  -2  -2   7  165.78   10.50
  -2  -2   7  209.48   10.70
   2  -2  -7  195.18   10.30
   2  -2  -7  166.18   10.60
  -2  -2   7  189.18   10.10
   2  -2  -7  188.18    9.70
   2  -2  -7  192.48   10.50
   2   2  -7  166.78   10.40
   2   2  -7  164.08   10.20
  -2   2   7  188.98   10.50
   2   2  -7  174.48   10.20
   2   2  -7  190.78    9.90
  -2   2   7  168.68   10.50
  -2   2   7  192.28   10.20
   0  -2   7 1253.27   61.39
   0  -2   7 1293.87   60.99
   0  -2   7 1410.66   61.99
   0  -2  -7 1291.87   60.79
   0  -2   7 1395.96   61.79
   0  -2  -7 1263.57   61.99
   0  -2  -7 1343.47   61.49
   0   2   7 1406.56   61.59
   0   2   7 1275.97   61.59
   0   2  -7 1316.07   61.59
   0   2  -7 1173.38   60.89
   0   2  -7 1330.17   61.49
   0   2  -7 1177.98   61.49
   0   2   7 1251.27   61.59
   2  -2   7   -2.30    2.00
  -2  -2  -7    3.20    3.00
   2  -2   7   -1.90    3.20
  -2  -2  -7   -3.20    3.30
  -2  -2  -7   -0.70    1.50
   2  -2   7    0.20    1.90
  -2  -2  -7   -2.00    3.50
   2  -2   7   -1.10    2.30
   2  -2   7   -0.50    3.10
   2   2   7   -1.80    3.10
   2   2   7   -0.30    2.30
  -2   2  -7    0.00    3.10
  -2   2  -7   -0.30    1.70
  -2   2  -7    1.50    3.40
   2   2   7   -4.80    2.80
   4  -2   7    4.80    4.40
   4  -2   7   -3.60    2.50
   4  -2   7    2.00    3.90
  -4  -2  -7    6.90    4.70
  -4  -2  -7   -3.20    4.50
  -4  -2  -7   -0.90    1.80
  -4  -2  -7   -5.50    3.30
   4  -2   7   -3.50    3.20
   4  -2   7    1.90    2.80
  -4   2  -7   -1.40    4.60
   4   2   7   -2.70    2.90
  -4   2  -7   -2.60    2.40
   4   2   7   -0.70    3.90
  -4   2  -7    0.50    4.10
   4   2   7   -1.20    3.90
   4   2   7    2.00    2.60
   6  -2   7    4.90    5.60
   6  -2   7   -1.00    5.60
   6  -2   7    7.50    4.90
  -6  -2  -7   17.00    6.00
   6  -2   7    7.40    3.50
   6  -2   7   10.80    3.80
  -6  -2  -7   -5.50    4.60
  -6   2  -7    5.40    3.50
   6   2   7    3.20    5.80
  -6   2  -7   11.80    3.40
   6   2   7   11.10    5.10
   6   2   7    6.80    5.40
  -6   2  -7   -6.60    5.50
   6   2   7    1.10    5.10
   8  -2   7  144.69   13.20
   8  -2   7  116.79   14.30
   8  -2   7  122.09   11.60
   8  -2   7  130.19   16.10
   8   2   7  105.19   14.10
   8   2   7   97.39   14.00
   8   2   7   95.69   14.70
  11  -3  -7   47.80    7.10
  11  -3  -7   34.40    6.80
  11  -3  -7   41.50    5.30
  11   3  -7   40.00    6.20
  11   3  -7   54.69    8.60
   9  -3  -7   -0.30    2.90
   9  -3  -7    3.30    3.00
  -9  -3   7    3.50    3.60
   9  -3  -7   -3.00    3.50
   9   3  -7   -3.00    3.00
   9   3  -7    2.10    2.70
   9   3  -7    2.10    2.80
   7  -3  -7    8.80    3.10
   7  -3  -7    4.90    3.60
   7  -3  -7    4.50    3.20
  -7  -3   7   10.50    2.90
   7  -3  -7    6.50    2.90
   7   3  -7    4.60    2.70
   7   3  -7    6.60    2.60
   7   3  -7    4.00    2.30
   7   3  -7    3.60    3.20
  -7   3   7   -0.80    2.90
   5  -3  -7    8.60    3.20
  -5  -3   7    8.80    3.10
   5  -3  -7    4.40    2.40
  -5  -3   7    8.70    2.40
   5  -3  -7   11.60    3.60
   5  -3  -7    7.00    2.70
  -5   3   7    9.30    3.00
  -5   3   7    8.10    2.20
  -5   3   7    5.50    3.50
   5   3  -7    3.40    2.40
   5   3  -7    4.80    2.20
   5   3  -7    7.20    2.60
  -5   3   7   10.70    2.40
   5   3  -7    7.50    2.80
   5   3  -7   12.70    2.60
  -3  -3   7    4.50    2.20
  -3  -3   7    9.20    3.50
   3  -3  -7    0.50    3.10
   3  -3  -7    5.40    3.20
   3  -3  -7    2.90    2.30
  -3  -3   7    4.50    3.40
   3  -3  -7    4.70    2.80
  -3  -3   7    5.70    1.90
   3   3  -7    2.30    2.40
   3   3  -7    4.40    2.00
   3   3  -7    5.00    2.50
  -3   3   7    5.50    2.90
  -3   3   7    5.80    2.90
  -3   3   7    6.00    2.10
   3   3  -7    4.90    2.90
   3   3  -7    8.60    3.10
   1  -3  -7    7.00    3.20
  -1  -3   7   10.40    3.60
   1  -3  -7    2.20    1.70
  -1  -3   7   -1.10    3.00
  -1  -3   7    5.60    2.30
   1  -3  -7    6.90    3.30
   1   3  -7    7.20    3.30
   1   3  -7    2.40    2.50
   1   3  -7    3.60    2.00
  -1   3   7    0.70    3.00
  -1   3   7    8.00    3.10
   1   3  -7    2.40    3.10
  -1   3   7    4.80    2.30
   1   3  -7    3.10    2.10
  -1  -3  -7  202.08   13.70
   1  -3   7  242.98   12.20
  -1  -3  -7  227.48   14.00
   1  -3   7  233.98   13.80
   1  -3   7  212.98   13.70
  -1  -3  -7  214.08   13.70
   1  -3   7  232.38   11.90
  -1  -3  -7  235.18   11.60
   1  -3   7  222.78   12.90
  -1   3  -7  232.78   12.30
   1   3   7  211.98   13.20
   1   3   7  226.98   13.00
  -1   3  -7  232.18   13.20
   1   3   7  223.68   13.70
  -3  -3  -7  129.39   11.00
   3  -3   7  141.79   10.80
   3  -3   7  115.99    8.20
  -3  -3  -7  126.49    7.10
   3  -3   7  125.39    9.30
  -3  -3  -7  121.89   10.10
   3  -3   7  133.09   10.80
  -3  -3  -7  103.09   10.50
  -3  -3  -7  128.29    9.20
   3  -3   7  119.09    7.90
  -3   3  -7  125.69   10.30
   3   3   7  117.69    9.70
  -3   3  -7  122.29    8.20
  -3   3  -7  124.59    9.70
   3   3   7  123.79   10.00
  -3   3  -7  111.49    8.00
  -3   3  -7  149.69   11.10
   3   3   7  122.19    9.40
   5  -3   7   14.80    3.90
  -5  -3  -7    1.30    7.20
   5  -3   7    7.50    3.90
   5  -3   7   -4.00    5.60
   5  -3   7   14.90    4.80
  -5  -3  -7    5.90    5.40
  -5  -3  -7   13.60    6.50
   5  -3   7    4.70    5.60
   5   3   7   14.40    3.90
   5   3   7    9.40    4.40
   5   3   7    0.10    5.30
  -5   3  -7    8.50    6.70
  -5   3  -7    3.80    5.50
  -5   3  -7    5.60    3.10
  -5   3  -7    3.90    3.40
   5   3   7   -2.90    4.90
   7  -3   7    3.30    7.80
   7  -3   7   15.00    8.30
   7  -3   7   18.10    7.00
   7  -3   7   11.90    5.90
   7   3   7   19.10    7.30
   7   3   7    7.90    7.60
   7   3   7   12.30    6.70
   7   3   7   27.20    6.90
  10  -4  -7    0.10    5.80
  10  -4  -7   -5.70    4.40
 -10  -4   7    3.40    5.20
  10  -4  -7   -8.70    4.60
  10   4  -7    2.30    4.20
 -10   4   7    6.50    5.50
  10   4  -7    3.60    3.90
  10   4  -7    5.10    4.80
   8  -4  -7   -2.10    4.20
  -8  -4   7    2.70    3.80
   8  -4  -7   -0.70    3.50
  -8  -4   7    0.10    4.00
  -8   4   7   -5.60    3.80
   8   4  -7   -1.10    4.90
   8   4  -7    2.10    3.60
   8   4  -7   -2.30    3.10
  -8   4   7    4.10    3.40
   8   4  -7    8.30    3.10
  -8   4   7   -0.70    4.90
   6  -4  -7   26.60    4.10
   6  -4  -7   23.10    5.40
   6  -4  -7   33.70    5.40
   6  -4  -7   28.30    5.00
  -6  -4   7   27.20    4.40
  -6  -4   7   37.00    4.90
   6   4  -7   36.80    5.50
   6   4  -7   27.50    4.70
  -6   4   7   24.30    4.60
   6   4  -7   33.30    6.00
  -6   4   7   33.60    4.90
  -6   4   7   24.60    4.30
   6   4  -7   31.40    4.50
  -4  -4   7   -1.10    3.90
   4  -4  -7   -1.20    2.40
  -4  -4   7    3.50    2.60
   4  -4  -7   -2.40    4.40
   4  -4  -7    9.90    3.80
  -4  -4   7    4.10    3.70
  -4  -4   7   -0.20    2.60
   4   4  -7    5.40    3.40
  -4   4   7   -5.10    3.20
  -4   4   7   -2.00    3.80
  -4   4   7    3.10    2.70
   4   4  -7    0.40    2.80
   4   4  -7   -0.80    2.40
   4   4  -7   -1.40    2.80
  -4   4   7    3.00    3.30
   4   4  -7    4.10    3.90
  -4   4   7    0.60    2.50
   2  -4  -7   95.79    9.50
  -2  -4   7  106.39    7.20
   2  -4  -7  108.39    9.70
   2  -4  -7  105.29    9.20
  -2  -4   7  110.39    9.40
  -2  -4   7  114.09    9.10
  -2  -4   7  115.89    7.80
   2  -4  -7  112.09    8.00
   2   4  -7  130.59    8.70
   2   4  -7  102.59    8.10
  -2   4   7  119.39    9.10
  -2   4   7  103.19    8.60
  -2   4   7   97.29    7.60
   2   4  -7   92.09    8.90
  -2   4   7  101.79    7.70
   2   4  -7  101.59    8.70
   2   4  -7  103.89    7.20
   0  -4  -7  800.52   37.10
   0  -4   7  795.42   37.10
   0  -4   7  776.72   38.70
   0  -4  -7  744.03   38.80
   0  -4  -7  763.52   38.40
   0  -4   7  758.92   37.40
   0  -4   7  671.93   39.70
   0  -4  -7  728.63   38.80
   0  -4   7  845.32   39.30
   0  -4  -7  784.32   39.10
   0   4  -7  758.82   38.20
   0   4   7  788.82   38.10
   0   4   7  772.42   37.60
   0   4   7  761.02   38.60
   0   4  -7  864.21   38.40
   0   4  -7  754.62   37.00
   0   4  -7  787.32   37.60
   0   4   7  813.92   38.40
   0   4  -7  755.42   37.90
   2  -4   7    4.70    5.40
  -2  -4  -7    7.50    5.90
  -2  -4  -7    5.50    4.60
   2  -4   7    4.00    5.30
  -2  -4  -7    0.10    2.00
  -2  -4  -7   -2.20    4.10
   2  -4   7    4.90    3.50
   2  -4   7   -0.20    3.00
  -2  -4  -7   -0.10    5.50
   2   4   7    8.40    4.90
   2   4   7    7.40    4.50
   2   4   7    7.10    3.40
  -2   4  -7    3.80    5.20
  -2   4  -7    5.50    4.60
   2   4   7   -0.30    4.30
   4  -4   7    5.80    7.00
   4  -4   7   -1.30    6.60
   4  -4   7   11.50    5.20
  -4  -4  -7    7.50   10.90
   4  -4   7   -3.60    3.90
   4   4   7    2.40    4.90
  -4   4  -7    1.70    3.70
  -4   4  -7    3.10    6.90
   4   4   7   -0.90    5.50
   4   4   7   12.20    6.10
   6  -4   7   -7.50    6.10
   6  -4   7   11.60    9.30
   6  -4   7    8.90    8.50
   6  -4   7   16.70    5.50
   6   4   7    9.60    7.30
   6   4   7   -0.30    6.80
   6   4   7    7.30    7.60
  -9  -5   7   -2.80    5.30
   9  -5  -7    2.90    5.20
   9  -5  -7    3.20    5.80
   9   5  -7    6.10    7.30
   9   5  -7   -5.80    5.40
   9   5  -7    1.40    4.40
   7  -5  -7    1.50    4.70
  -7  -5   7   -1.30    4.20
  -7  -5   7   -2.60    4.40
  -7   5   7   -5.90    5.10
   7   5  -7    6.30    5.30
   7   5  -7   -7.00    5.10
   7   5  -7    9.10    6.10
   7   5  -7   -0.30    4.60
   7   5  -7   -2.50    4.60
   7   5  -7    4.00    3.60
   5  -5  -7    5.20    6.30
  -5  -5   7    9.00    4.00
   5  -5  -7    8.90    5.50
  -5  -5   7    5.10    3.90
   5  -5  -7    3.10    5.00
  -5   5   7   14.40    5.20
  -5   5   7    8.50    3.40
   5   5  -7    7.20    3.60
  -5   5   7   10.80    5.10
   5   5  -7    8.50    5.30
  -5   5   7    4.00    4.30
   5   5  -7    4.00    4.30
   5   5  -7   11.30    4.20
  -5   5   7   12.60    4.20
   3  -5  -7   10.10    5.80
  -3  -5   7    5.90    5.80
  -3  -5   7   10.00    3.60
  -3  -5   7    3.60    4.30
  -3  -5   7    4.50    5.90
   3  -5  -7    9.80    5.70
   3  -5  -7   10.30    5.00
   3   5  -7    3.40    5.60
  -3   5   7   12.60    5.20
   3   5  -7    7.20    3.30
  -3   5   7    9.30    4.10
   3   5  -7    4.50    5.40
   3   5  -7    5.20    3.50
  -3   5   7    3.50    3.30
  -3   5   7    3.80    4.70
   3   5  -7    3.40    4.80
   1  -5  -7   10.60    6.80
  -1  -5   7    5.70    6.00
  -1  -5   7   -2.60    5.30
  -1  -5   7    0.00    3.90
   1  -5  -7   -0.90    6.20
  -1   5   7    7.90    4.10
  -1   5   7   -0.60    4.80
  -1   5   7   12.30    4.60
  -1   5   7    2.20    5.40
   1   5  -7    1.80    2.80
   1   5  -7   -2.80    3.20
   1   5  -7    2.00    5.00
   1   5  -7    5.00    3.90
  -1  -5  -7  108.29   13.90
   1  -5   7  138.39    9.30
   1  -5   7  117.59   12.30
   1  -5   7  129.69   10.50
   1  -5   7  119.79   13.60
  -1  -5  -7  137.39    8.40
   1   5   7  123.59   12.30
  -1   5  -7  153.28   12.50
  -1   5  -7  124.29    8.90
   1   5   7  135.29   11.60
   1   5   7  137.79   10.50
  -1   5  -7  126.39    9.30
  -1   5  -7  123.89   12.90
  -1   5  -7  112.79    9.30
   3  -5   7   50.99    7.50
   3  -5   7   67.59   10.50
   3  -5   7   54.39    9.30
  -3  -5  -7   55.09    5.70
   3  -5   7   54.49    8.50
   3   5   7   58.29   11.20
  -3   5  -7   68.09    7.80
   3   5   7   75.19   10.80
  -3   5  -7   61.69   10.00
   3   5   7   57.99    9.70
   5  -5   7   20.90    9.40
   5  -5   7   -3.80    7.00
   5  -5   7   -0.10   10.40
   5  -5   7    7.20    6.30
   5   5   7   12.70    7.70
   5   5   7    4.10    9.00
   5   5   7   11.30    7.60
  -8  -6   7    8.40    6.90
   8   6  -7    7.90    5.70
   8   6  -7   -0.20   10.00
   8   6  -7    2.30    9.90
   8   6  -7   12.50    7.60
   8   6  -7  -11.40    9.00
   6   6  -7    7.80    5.90
  -6   6   7    8.70    4.60
   6   6  -7    9.60    8.80
  -6   6   7   12.10    7.50
   6   6  -7   13.60    5.10
  -4  -6   7    4.40    4.90
   4  -6  -7   17.40   11.10
   4  -6  -7   15.50    9.00
  -4   6   7   -7.60    6.30
  -4   6   7   17.10    7.50
   4   6  -7    1.40    4.60
  -4   6   7   -4.20    4.50
  -4   6   7   -1.30    6.70
   4   6  -7   12.90    8.00
   4   6  -7    8.30    4.90
   4   6  -7    7.00    4.50
  -2  -6   7   45.00    8.00
   2  -6  -7   47.10   10.50
  -2  -6   7   49.30    9.20
   2   6  -7   43.00    9.60
   2   6  -7   55.09    8.40
   2   6  -7   64.89   13.20
  -2   6   7   69.69   11.80
   2   6  -7   52.49    7.20
  -2   6   7   60.89    8.90
   2   6  -7   50.39    6.40
  -2   6   7   35.60    8.00
   0  -6   7  403.56   26.70
   0  -6  -7  433.76   27.20
   0  -6   7  390.36   21.70
   0  -6   7  412.56   25.30
   0   6  -7  395.86   21.80
   0   6   7  372.06   22.90
   0   6   7  414.86   24.30
   0   6  -7  427.16   22.50
   0   6  -7  386.96   21.70
   0   6   7  428.36   27.70
  -2  -6  -7   -1.10    4.20
   2  -6   7   19.60   11.80
   2  -6   7    2.30    6.50
   2  -6   7   -8.70    9.60
   2  -6   7   -2.20    5.80
   2   6   7    4.20    7.90
   2   6   7   14.20    8.70
  -2   6  -7   -6.10    5.40
   2   6   7   -0.60    6.50
  12   0  -8   51.79    7.90
  12   0  -8   48.60    6.40
  10   0  -8   27.70    3.70
  10   0  -8   26.90    3.70
   8   0  -8   17.80    2.50
   8   0  -8   20.30    3.70
  -6   0   8   41.20    4.80
   6   0  -8   38.10    4.00
   6   0  -8   44.70    3.90
   6   0  -8   37.40    4.70
   4   0  -8   68.19    5.70
   4   0  -8   74.29    5.50
  -4   0   8   79.49    5.00
   4   0  -8   78.59    5.10
   4   0  -8   76.49    6.00
  -4   0   8   76.49    6.10
   2   0  -8   -1.20    1.50
  -2   0   8    2.70    1.90
   2   0  -8    1.10    2.40
  -2   0   8    0.40    2.50
  -2   0   8    0.20    2.50
   2   0  -8    0.20    2.10
   2   0  -8    2.70    2.30
   0   0  -8   10.50    2.20
   0   0  -8    5.30    2.80
   0   0  -8    5.30    3.30
   0   0   8    4.10    3.40
   0   0   8    3.70    3.00
   2   0   8    0.70    3.70
  -2   0  -8   -3.70    3.30
  -2   0  -8   -0.70    1.90
  -2   0  -8    0.30    2.80
   2   0   8    6.60    4.00
  -2   0  -8   -0.80    3.90
   2   0   8   -0.70    2.00
   2   0   8    2.10    3.80
  -4   0  -8   24.00    6.10
  -4   0  -8   25.70    4.80
  -4   0  -8   28.00    4.20
   4   0   8   23.30    5.60
   4   0   8   24.70    3.80
   6   0   8  117.59   10.30
  -6   0  -8  130.79    8.30
  -6   0  -8  125.19   10.00
   6   0   8  126.89   12.60
   6   0   8  116.79    9.40
   6   0   8  113.19   11.50
   8   0   8  237.88   17.90
   8   0   8  207.18   15.40
  13  -1  -8   50.89    9.30
  13  -1  -8   51.99    7.90
  13   1  -8   54.09    7.70
  13   1  -8   49.30    7.40
  11  -1  -8    5.80    3.40
  11  -1  -8    2.10    3.50
  11   1  -8   11.50    3.40
  11   1  -8    4.30    3.70
  11   1  -8   10.70    4.00
   9  -1  -8    5.10    2.50
   9   1  -8    0.20    2.50
   9   1  -8   -0.70    2.80
   9   1  -8    5.10    2.30
   7  -1  -8  138.69    8.30
  -7  -1   8  121.99    7.70
   7  -1  -8  127.79    7.90
   7   1  -8  133.79    7.90
   5  -1  -8  325.57   16.00
   5  -1  -8  299.67   15.90
   5  -1  -8  301.57   15.60
  -5  -1   8  299.37   15.60
   5  -1  -8  291.07   15.40
  -5   1   8  278.47   15.50
  -5   1   8  319.27   15.60
   5   1  -8  293.27   15.50
   5   1  -8  319.87   15.70
   5   1  -8  291.67   15.50
   5   1  -8  306.17   15.40
   3  -1  -8  143.59    8.60
   3  -1  -8  168.68    9.70
   3  -1  -8  166.48    9.40
   3  -1  -8  148.89    9.70
  -3  -1   8  144.99    8.80
  -3  -1   8  169.88    9.60
   3   1  -8  154.68    8.80
  -3   1   8  168.68    9.60
  -3   1   8  162.38    8.90
   3   1  -8  151.48    9.50
   3   1  -8  158.98    9.50
   3   1  -8  165.08    9.40
  -3   1   8  130.89    9.20
   1  -1  -8  156.08    9.00
   1  -1  -8  153.78    9.40
  -1  -1   8  135.89    9.20
  -1  -1   8  136.39    8.60
   1  -1  -8  129.29    9.30
  -1  -1   8  136.69    9.40
  -1  -1   8  146.19    8.30
   1  -1  -8  145.59    8.00
  -1   1   8  154.28    8.80
   1   1  -8  135.09    8.00
   1   1  -8  143.49    8.80
   1   1  -8  127.79   10.60
  -1   1   8  123.99    9.00
   1   1  -8  151.18    9.30
  -1   1   8  144.29    9.20
  -1  -1  -8    5.30    2.00
  -1  -1  -8    9.40    3.80
   1  -1   8   11.80    2.60
   1  -1   8    6.00    2.90
   1  -1   8    7.70    3.70
   1  -1   8    7.40    3.70
  -1   1  -8    8.80    2.40
   1   1   8    9.50    3.70
   1   1   8   10.70    3.50
  -1   1  -8   12.60    3.80
   1   1   8    9.00    2.70
  -1   1  -8    6.40    3.50
   3  -1   8   14.80    2.90
   3  -1   8    3.70    4.60
   3  -1   8   13.40    3.90
  -3  -1  -8   10.70    5.20
  -3  -1  -8   17.00    2.70
  -3  -1  -8   23.00    4.50
  -3  -1  -8   12.80    5.20
   3  -1   8   10.70    4.70
  -3  -1  -8   14.00    4.40
   3  -1   8   13.40    3.00
   3   1   8   13.90    4.40
   3   1   8   16.20    3.90
  -3   1  -8    6.00    3.50
  -3   1  -8   13.10    2.90
   3   1   8    8.20    4.50
  -3   1  -8   10.50    4.70
  -3   1  -8   11.70    4.60
   5  -1   8    1.00    5.80
  -5  -1  -8   -5.70    5.70
   5  -1   8   -5.70    5.40
  -5  -1  -8    3.60    2.90
  -5  -1  -8   -4.20    4.20
   5  -1   8   -3.00    3.30
   5  -1   8    2.30    4.50
   5  -1   8    7.20    3.70
  -5  -1  -8    8.60    6.80
   5   1   8   10.20    5.40
   5   1   8    2.90    4.30
   5   1   8   -3.10    5.10
   5   1   8   -0.40    4.10
   5   1   8    0.50    4.50
  -5   1  -8   -0.80    2.90
  -5   1  -8    0.00    4.20
   7  -1   8   30.20    8.20
  -7  -1  -8   25.80    7.30
   7  -1   8   24.00    9.10
   7   1   8   21.60    7.10
   7   1   8   34.00    8.60
   7   1   8   23.70    8.70
   7   1   8   35.30    6.00
   7   1   8   18.70    7.60
  12  -2  -8   34.30    5.20
  12   2  -8   27.20    6.80
  12   2  -8   34.80    5.20
  10  -2  -8   36.00    6.50
  10  -2  -8   22.00    4.20
  10   2  -8   28.80    3.90
  10   2  -8   26.00    5.10
  -8  -2   8   21.10    3.80
   8  -2  -8   31.00    5.70
   8  -2  -8   21.70    3.40
   8  -2  -8   23.80    3.70
   8   2  -8   13.30    2.70
   8   2  -8   16.10    4.00
   8   2  -8   16.60    3.00
  -6  -2   8   43.60    4.30
   6  -2  -8   33.60    4.10
   6  -2  -8   28.10    5.50
  -6  -2   8   32.50    5.40
   6  -2  -8   32.10    5.00
   6  -2  -8   39.90    4.90
   6   2  -8   43.80    5.30
   6   2  -8   31.80    4.60
  -6   2   8   30.50    4.60
   6   2  -8   38.80    4.80
   6   2  -8   37.60    4.30
  -4  -2   8   68.59    5.10
   4  -2  -8   70.19    6.30
   4  -2  -8   69.19    5.00
  -4  -2   8   71.59    5.20
   4  -2  -8   71.59    6.70
   4  -2  -8   77.99    6.00
  -4  -2   8   70.99    6.50
  -4  -2   8   65.89    8.20
   4   2  -8   75.29    5.30
  -4   2   8   71.59    5.30
   4   2  -8   77.19    5.80
  -4   2   8   69.49    6.00
   4   2  -8   77.29    6.00
  -4   2   8   75.29    6.10
   4   2  -8   63.19    6.00
   2  -2  -8    5.90    3.70
   2  -2  -8    1.70    2.50
  -2  -2   8    1.60    3.20
   2  -2  -8    0.70    1.50
  -2  -2   8    0.90    2.10
   2  -2  -8    1.70    2.90
  -2  -2   8   -2.50    2.70
  -2   2   8    0.20    2.90
   2   2  -8    2.70    3.20
  -2   2   8   -0.90    2.00
  -2   2   8    1.00    2.70
   2   2  -8   -0.40    2.80
   2   2  -8    2.70    2.80
   2   2  -8   -1.80    1.80
   0  -2   8    3.00    2.30
   0  -2   8   -1.20    3.50
   0  -2  -8    6.50    3.60
   0  -2   8    3.60    2.60
   0  -2   8    7.00    4.00
   0  -2  -8    3.30    3.40
   0  -2  -8    3.80    1.80
   0  -2  -8   12.10    3.30
   0   2   8   -0.60    2.40
   0   2  -8    2.80    3.40
   0   2   8    4.80    3.20
   0   2   8    3.90    3.30
   0   2  -8    4.80    2.10
   0   2  -8    6.50    3.60
  -2  -2  -8    0.70    2.90
   2  -2   8    2.20    3.10
  -2  -2  -8    3.00    4.40
   2  -2   8    2.80    4.40
   2  -2   8    3.50    4.30
   2  -2   8    5.70    2.40
   2  -2   8    2.20    2.50
  -2  -2  -8   -1.30    4.50
  -2  -2  -8    0.00    3.80
  -2  -2  -8    1.80    2.20
   2   2   8   -3.40    2.60
  -2   2  -8   -6.20    4.10
   2   2   8   -0.60    3.90
  -2   2  -8    2.30    4.10
  -4  -2  -8   20.40    6.60
   4  -2   8   19.20    4.00
   4  -2   8   32.60    6.40
  -4  -2  -8   17.90    5.80
   4  -2   8   27.00    4.30
   4  -2   8   15.60    5.10
  -4  -2  -8   15.50    4.90
  -4  -2  -8   25.60    4.20
  -4   2  -8   12.60    5.90
  -4   2  -8   27.60    3.90
  -4   2  -8   25.70    6.50
   4   2   8   31.00    8.20
   4   2   8   19.60    4.80
   4   2   8   23.30    5.40
   6  -2   8  106.99   10.00
   6  -2   8  121.59   13.70
   6  -2   8   99.79    9.20
   6  -2   8  102.39   11.30
   6  -2   8  109.69   14.00
   6   2   8  109.09   14.00
   6   2   8   94.89   12.90
   6   2   8   80.99   12.20
  -6   2  -8  111.19    8.80
  11  -3  -8    4.20    5.10
  11  -3  -8    2.00    4.00
  11  -3  -8   15.60    5.80
  11   3  -8    5.30    5.20
  11   3  -8    9.70    4.50
   9  -3  -8   -1.60    4.10
   9  -3  -8    8.20    4.30
  -9  -3   8    8.40    4.50
   9   3  -8    2.00    3.20
   9   3  -8    1.70    3.40
   9   3  -8    1.50    4.10
  -7  -3   8   95.69    7.40
   7  -3  -8   87.79    8.10
  -7  -3   8   98.79    7.60
   7  -3  -8   98.19    7.80
   7  -3  -8   86.69    8.70
   7  -3  -8   90.99    8.10
  -7   3   8   91.19    7.70
   7   3  -8   80.89    7.60
   7   3  -8   98.19    7.10
   7   3  -8   87.59    6.80
   7   3  -8   95.89    7.00
   5  -3  -8  215.38   13.30
  -5  -3   8  195.98   12.70
   5  -3  -8  235.38   13.50
   5  -3  -8  215.58   12.70
  -5  -3   8  253.97   13.20
   5  -3  -8  218.38   13.10
  -5  -3   8  225.28   12.20
  -5  -3   8  220.28   12.20
   5  -3  -8  205.38   11.90
  -5   3   8  224.08   12.90
   5   3  -8  220.68   12.40
   5   3  -8  217.88   13.10
  -5   3   8  214.08   11.80
   5   3  -8  217.68   12.80
  -5   3   8  230.98   12.60
  -5   3   8  225.48   11.70
   5   3  -8  212.58   12.10
   5   3  -8  212.28   12.50
  -3  -3   8   84.79    8.10
   3  -3  -8   93.99    7.70
   3  -3  -8   83.89    8.10
   3  -3  -8   85.99    6.50
  -3  -3   8   82.39    8.00
  -3  -3   8   84.09    5.90
   3  -3  -8   81.69    6.90
  -3  -3   8   87.39    6.50
   3  -3  -8   84.19    8.00
   3   3  -8   77.39    7.00
  -3   3   8   79.39    6.60
   3   3  -8   94.89    7.20
  -3   3   8   74.99    7.40
  -3   3   8   83.79    7.80
   3   3  -8   78.29    7.40
   3   3  -8   71.59    7.30
   3   3  -8   88.19    6.20
   1  -3  -8  117.49    9.80
  -1  -3   8  112.39    9.80
  -1  -3   8  120.49    7.80
   1  -3  -8  127.89    9.20
  -1  -3   8  115.19    8.10
  -1  -3   8  110.09    9.50
   1  -3  -8  125.99    9.50
   1  -3  -8  116.09    7.10
   1   3  -8  108.09    9.20
  -1   3   8  120.69    8.90
   1   3  -8  109.19    7.40
  -1   3   8  113.19    8.30
  -1   3   8  109.79    9.20
   1   3  -8  118.09    9.60
   1   3  -8  131.69    9.00
  -1  -3  -8    1.90    4.80
  -1  -3  -8    3.90    2.90
   1  -3   8    8.50    4.90
   1  -3   8    1.60    2.70
  -1  -3  -8    1.00    4.50
  -1  -3  -8    1.90    2.30
  -1  -3  -8    5.30    4.00
   1  -3   8    3.90    4.80
   1  -3   8    3.80    3.20
   1   3   8    2.80    3.30
   1   3   8    3.40    3.50
  -1   3  -8   -0.80    5.10
  -1   3  -8   -0.70    2.20
  -1   3  -8   12.80    4.40
  -1   3  -8    5.70    4.00
   1   3   8   -0.70    3.80
   3  -3   8   18.50    6.30
   3  -3   8   15.80    4.60
   3  -3   8   18.70    3.90
   3  -3   8   14.00    3.70
  -3  -3  -8   15.90    2.90
  -3  -3  -8   13.20    6.40
   3  -3   8   11.60    5.90
  -3   3  -8    9.50    3.50
   3   3   8   12.00    4.50
   3   3   8    8.10    5.50
  -3   3  -8   18.10    8.40
   3   3   8   14.20    5.50
  -3   3  -8   11.10    6.00
   5  -3   8    0.20    6.90
   5  -3   8   -2.90    4.50
   5  -3   8    6.00    7.50
   5  -3   8    4.40    5.40
   5   3   8    0.20    6.70
  -5   3  -8    4.50    4.60
   5   3   8   -1.40    5.20
   5   3   8   -6.30    6.20
  -5   3  -8   -4.50    4.10
  10  -4  -8   17.60    5.70
 -10  -4   8   16.60    6.40
  10  -4  -8   17.80    5.40
  10   4  -8   15.30    5.00
  10   4  -8   19.10    6.60
  10   4  -8   11.10    7.10
   8  -4  -8    6.50    4.80
   8  -4  -8   11.60    5.50
  -8  -4   8    8.80    4.60
   8  -4  -8   21.80    6.30
   8   4  -8   21.00    5.70
   8   4  -8   10.40    4.80
   8   4  -8    7.40    3.60
   8   4  -8    1.90    4.40
  -8   4   8    3.80    4.70
   6  -4  -8   24.70    6.20
  -6  -4   8   12.20    4.00
   6  -4  -8   21.30    4.70
   6  -4  -8   18.60    5.50
  -6  -4   8   23.10    4.10
   6  -4  -8   29.90    5.50
   6   4  -8   22.20    4.90
   6   4  -8   24.80    5.00
   6   4  -8   25.00    4.00
  -6   4   8   16.90    4.80
   6   4  -8   29.30    4.80
   6   4  -8   14.10    4.30
  -6   4   8   24.20    3.60
   4  -4  -8   54.69    9.20
  -4  -4   8   46.90    5.80
  -4  -4   8   66.69   12.90
   4  -4  -8   60.49    8.90
  -4  -4   8   52.79    8.20
   4  -4  -8   72.59    6.80
   4  -4  -8   48.50    8.60
  -4  -4   8   53.59    6.50
   4   4  -8   61.59    6.50
  -4   4   8   36.10    7.30
   4   4  -8   52.19    5.70
   4   4  -8   70.29    8.00
  -4   4   8   56.59    7.70
  -4   4   8   53.99    6.00
  -4   4   8   54.09    6.00
   2  -4  -8   -2.90    5.00
  -2  -4   8    7.10    4.80
   2  -4  -8    4.10    2.60
  -2  -4   8    2.80    5.10
   2  -4  -8    3.90    4.90
   2  -4  -8   -3.80    3.70
   2  -4  -8   -1.70    4.90
  -2  -4   8    2.30    3.40
  -2  -4   8    4.10    3.50
  -2  -4   8    1.90    3.20
  -2   4   8    5.00    3.00
  -2   4   8    6.10    4.20
   2   4  -8    7.30    5.10
   2   4  -8    6.10    3.00
  -2   4   8   -4.10    4.10
   2   4  -8    5.00    4.50
   2   4  -8    1.70    3.50
   2   4  -8   -0.70    3.10
   0  -4  -8    2.90    6.20
   0  -4   8   -4.10    3.60
   0  -4  -8   -3.60    2.80
   0  -4   8   -1.10    3.00
   0  -4   8    1.40    6.50
   0  -4   8   -8.80    5.20
   0  -4  -8   -3.90    5.80
   0   4  -8    4.50    3.30
   0   4   8    7.10    4.80
   0   4  -8    1.20    2.80
   0   4   8    1.50    4.70
   0   4   8    2.20    3.70
   0   4  -8   10.40    5.80
   0   4  -8    4.20    5.20
  -2  -4  -8  -10.50    7.10
   2  -4   8    3.30    7.00
   2  -4   8    7.10    4.20
  -2  -4  -8    1.50    2.80
   2  -4   8   11.50    6.60
   2  -4   8    2.60    3.90
  -2   4  -8   -3.40    3.40
  -2   4  -8   -2.70    4.30
   2   4   8    2.60    6.10
   2   4   8    4.90    5.30
  -2   4  -8   -1.20    7.00
   2   4   8    6.40    4.40
   2   4   8   -5.20    5.00
   4  -4   8   35.60    8.70
   4  -4   8   21.30    9.00
   4  -4   8   24.20    5.70
   4  -4   8   15.20    5.80
  -4   4  -8   21.10    5.20
   4   4   8   21.50    7.50
   4   4   8   17.30    5.90
  -4   4  -8    8.80    4.70
   4   4   8   21.00    7.30
  -9  -5   8   -1.30    6.20
   9   5  -8   11.60    6.30
   9   5  -8   -0.20    5.20
  -7  -5   8   47.50    8.30
   7   5  -8   50.89    8.70
   7   5  -8   41.30    5.90
   7   5  -8   44.40    8.40
  -7   5   8   56.19   10.30
   5  -5  -8  107.69   13.80
   5  -5  -8  133.79   13.70
  -5  -5   8  121.69    9.90
  -5   5   8  117.59   11.50
  -5   5   8  110.99    9.40
   5   5  -8  118.99   11.10
   5   5  -8  123.09   10.00
   5   5  -8   98.79   12.10
  -5   5   8  115.59   12.40
  -5   5   8  111.69   10.30
  -5   5   8  128.89    9.80
   5   5  -8  134.69    9.40
   3  -5  -8   27.20    7.80
  -3  -5   8   30.70    7.80
   3  -5  -8   38.50    9.80
  -3  -5   8   34.30    5.00
  -3  -5   8   27.90    7.40
   3   5  -8   31.50    5.80
  -3   5   8   26.10    5.30
   3   5  -8   36.10    7.40
  -3   5   8   32.00    5.40
   3   5  -8   23.70    6.40
  -3   5   8   32.70    7.30
  -3   5   8   34.30    8.20
   3   5  -8   30.90    4.70
  -1  -5   8   98.19   13.20
   1  -5  -8  108.79   15.00
  -1  -5   8   88.29   11.90
   1  -5  -8   71.89    6.90
  -1  -5   8   65.29    8.90
   1   5  -8   71.29   11.90
   1   5  -8   77.09    7.40
  -1   5   8   54.99   10.90
   1   5  -8   91.69    8.60
  -1   5   8   96.69   10.50
  -1   5   8   83.19    9.90
  -1   5   8   76.19    8.70
   1   5  -8   90.69   12.00
  -1  -5  -8   -2.70    3.40
  -1  -5  -8    2.70    9.30
   1  -5   8   -0.50    7.70
   1  -5   8    0.30    7.00
   1  -5   8   -2.20    5.60
   1   5   8   -2.30    6.20
  -1   5  -8    3.50    8.60
  -1   5  -8   -0.60    4.60
  -1   5  -8    2.00    4.10
   1   5   8   -3.90    4.50
   3  -5   8    3.50    6.30
  -3  -5  -8   11.20    3.90
   3  -5   8   12.80   10.30
   3  -5   8    9.10    8.90
   3  -5   8    6.90    5.90
  -3   5  -8    7.20    5.20
   3   5   8   -7.10    8.30
   3   5   8   17.60    7.90
  -3   5  -8    3.50    5.50
   3   5   8    9.00    6.40
  -6  -6   8   22.30    6.80
   6   6  -8    4.30    8.20
   6   6  -8   16.70    7.10
   6   6  -8    8.50    9.80
   6   6  -8   17.50    5.70
  -4  -6   8   42.80    7.10
   4   6  -8   33.70    7.60
  -4   6   8   26.00    7.70
  -4   6   8   19.90    5.90
   4   6  -8   34.70    6.00
  -2  -6   8   -0.40    5.30
  -2  -6   8    1.30    9.50
  -2   6   8    8.30    6.20
   2   6  -8   -7.10    4.80
  -2   6   8    4.60   10.20
  -2   6   8   -3.00    7.30
   2   6  -8    3.80    5.90
   0  -6  -8   -1.90    4.70
   0  -6   8   -2.80   10.20
   0   6   8    0.00    8.80
   0   6   8   -7.20    8.00
   0   6   8   11.50    6.70
   0   6  -8   -6.20    5.30
   0   6  -8   -0.50    6.30
  12   0  -9   10.80    4.30
  12   0  -9   10.20    5.80
  10   0  -9   11.20    3.60
  10   0  -9    8.10    3.30
   8   0  -9   53.29    5.20
   8   0  -9   50.89    5.30
   6   0  -9    0.90    2.40
   6   0  -9    1.90    1.90
   6   0  -9    2.80    2.80
   6   0  -9   -3.50    3.30
  -6   0   9   -4.90    2.90
   4   0  -9    3.80    3.00
  -4   0   9    1.80    2.00
   4   0  -9    0.60    2.70
  -4   0   9    2.30    3.20
   4   0  -9   -1.50    2.20
   4   0  -9    0.10    2.00
  -4   0   9    1.00    2.90
   2   0  -9   13.40    4.00
  -2   0   9    9.90    3.70
  -2   0   9   15.20    4.10
   2   0  -9   15.10    3.30
  -2   0   9   11.20    2.90
   2   0  -9   19.20    3.80
   2   0  -9   12.90    2.80
   0   0   9    7.20    3.80
   0   0  -9   13.10    3.90
   0   0  -9    8.20    2.60
   0   0  -9    0.80    3.30
   0   0  -9    6.80    3.80
   0   0   9   -1.00    4.10
  -2   0  -9   29.00    3.80
   2   0   9   36.40    6.00
   2   0   9   43.40    8.10
   2   0   9   24.50    3.40
  -2   0  -9   25.90    5.60
  -2   0  -9   26.40    4.70
  -2   0  -9   28.50    5.70
   2   0   9   14.60    5.20
  -2   0  -9   38.80    6.90
  -4   0  -9   38.80    5.00
   4   0   9   29.90    5.80
   4   0   9   36.70    8.10
   4   0   9   30.60    7.20
  -4   0  -9   42.70    7.20
  -4   0  -9   31.50    7.40
   6   0   9   44.70    9.80
  -6   0  -9   52.49    7.80
   6   0   9   36.00    6.30
   6   0   9   18.20    9.10
   6   0   9   26.30    7.30
  11  -1  -9   -0.90    3.70
  11  -1  -9   18.40    5.30
  11   1  -9    7.60    4.00
  11   1  -9    9.20    4.80
   9  -1  -9  375.96   19.20
   9  -1  -9  375.16   19.20
   9   1  -9  370.26   19.10
   9   1  -9  360.46   18.80
   7  -1  -9   15.80    3.20
   7  -1  -9   17.70    4.00
   7  -1  -9   13.10    3.30
  -7   1   9   17.20    4.10
   7   1  -9    9.40    3.00
   7   1  -9   16.80    3.60
   7   1  -9   24.00    3.90
  -5  -1   9   62.79    6.50
   5  -1  -9   50.39    6.40
   5  -1  -9   56.59    6.20
  -5  -1   9   51.19    5.50
   5  -1  -9   53.89    5.70
   5  -1  -9   56.29    5.00
  -5   1   9   56.79    6.10
  -5   1   9   64.69    6.00
   5   1  -9   62.99    6.00
   5   1  -9   54.99    5.70
   5   1  -9   74.89    5.80
   5   1  -9   63.59    5.10
  -3  -1   9   24.00    3.50
   3  -1  -9   31.30    4.80
   3  -1  -9   31.30    5.60
   3  -1  -9   27.40    4.10
  -3  -1   9   25.90    4.20
   3   1  -9   27.80    4.30
   3   1  -9   29.80    3.70
  -3   1   9   28.90    4.30
   3   1  -9   26.20    3.90
   3   1  -9   27.80    5.30
  -3   1   9   22.90    4.20
  -1  -1   9   70.99    7.90
   1  -1  -9   68.69    7.90
   1  -1  -9   63.09    7.70
   1  -1  -9   64.59    6.80
   1  -1  -9   67.39    5.30
  -1  -1   9   70.69    6.40
  -1  -1   9   76.99    5.90
   1   1  -9   59.79    5.80
  -1   1   9   74.99    7.40
  -1   1   9   76.29    6.40
  -1   1   9   67.69    7.50
   1   1  -9   71.49    7.40
   1   1  -9   65.19    7.10
   1   1  -9   54.79    7.80
  -1  -1  -9  191.78   13.40
   1  -1   9  191.68   12.10
   1  -1   9  182.78   13.10
  -1  -1  -9  190.58   13.20
  -1  -1  -9  189.28   12.60
  -1  -1  -9  194.98   10.80
   1  -1   9  203.58   13.40
  -1  -1  -9  223.68   12.30
   1  -1   9  208.38   11.20
  -1   1  -9  183.18   12.30
  -1   1  -9  194.28   12.70
   1   1   9  185.88   12.00
   1   1   9  161.58   12.80
  -1   1  -9  190.88   13.00
  -1   1  -9  193.88   11.00
   1   1   9  218.88   14.70
  -3  -1  -9  132.39    8.10
   3  -1   9  133.89   12.00
   3  -1   9  131.19   10.40
  -3  -1  -9  116.89   12.50
  -3  -1  -9  110.99    9.90
   3  -1   9  126.59    8.70
   3  -1   9  105.89   12.10
   3  -1   9  128.59    8.80
   3   1   9  116.79    8.70
   3   1   9  133.69   10.40
   3   1   9  121.89   11.40
  -3   1  -9  132.89    8.60
  -3   1  -9   99.39   12.00
   3   1   9  132.99   11.30
   5  -1   9   -4.60    4.80
  -5  -1  -9    6.60    3.80
   5  -1   9   14.00    6.10
   5  -1   9    7.10    7.80
   5  -1   9    4.50    7.20
   5   1   9    7.80    7.40
   5   1   9    4.50    4.70
  -5   1  -9    5.40    4.20
  -5   1  -9   13.20    5.40
   5   1   9   -1.60    7.00
   5   1   9   11.10    6.00
  12  -2  -9   17.70    5.30
  12   2  -9   18.70    7.10
  12   2  -9    6.70    4.90
  10  -2  -9    8.30    4.70
  10  -2  -9   13.50    4.10
  10   2  -9   13.80    5.00
  10   2  -9   12.20    4.00
  10   2  -9   21.50    4.10
  -8  -2   9   49.80    6.20
   8  -2  -9   49.00    6.70
   8  -2  -9   53.89    7.70
   8  -2  -9   56.29    5.60
   8   2  -9   47.10    6.30
   8   2  -9   54.79    5.70
   8   2  -9   51.29    7.30
   6  -2  -9    0.50    2.40
   6  -2  -9    3.90    3.30
  -6  -2   9    3.00    2.70
  -6  -2   9   -2.60    3.80
   6  -2  -9    1.60    3.40
   6  -2  -9    8.10    4.00
  -6   2   9    1.00    3.10
   6   2  -9    0.60    2.90
   6   2  -9    1.70    3.20
   6   2  -9    0.90    3.40
  -6   2   9   -0.90    3.10
   6   2  -9   -2.60    2.30
   4  -2  -9    1.90    3.60
  -4  -2   9    1.50    3.00
  -4  -2   9    1.30    2.30
  -4  -2   9   -1.20    3.30
   4  -2  -9    4.10    3.40
  -4  -2   9   -0.40    2.20
  -4  -2   9   -3.00    3.60
   4  -2  -9    0.90    1.90
   4  -2  -9   -2.50    3.80
   4   2  -9    0.60    3.30
  -4   2   9    0.10    2.20
   4   2  -9    3.70    3.60
   4   2  -9    0.10    2.30
   4   2  -9   -2.40    3.10
  -4   2   9   -3.70    3.10
  -2  -2   9   10.60    4.50
  -2  -2   9   10.90    3.00
   2  -2  -9   14.40    4.60
  -2  -2   9    7.90    2.40
   2  -2  -9   10.00    3.50
   2  -2  -9   11.10    3.10
  -2  -2   9   11.60    4.20
  -2  -2   9    9.50    3.00
   2  -2  -9   17.90    4.20
   2  -2  -9    9.20    4.30
   2   2  -9   13.50    3.60
  -2   2   9    9.80    4.20
   2   2  -9   14.30    4.30
  -2   2   9   11.50    3.30
  -2   2   9    4.70    3.60
   2   2  -9   19.50    4.20
   2   2  -9   10.40    2.80
   0  -2  -9    3.70    3.20
   0  -2   9    3.90    4.70
   0  -2  -9    8.80    5.00
   0  -2  -9    4.00    4.60
   0  -2  -9    0.70    3.80
   0  -2  -9    4.60    2.30
   0  -2   9    3.60    3.30
   0  -2   9    5.60    3.00
   0  -2   9    1.30    4.70
   0   2  -9    1.20    3.40
   0   2   9   -1.80    4.30
   0   2  -9    3.10    2.40
   0   2  -9    0.50    4.50
   0   2   9    0.60    3.30
   0   2   9   -1.00    3.80
   2  -2   9   21.40    4.00
  -2  -2  -9   26.00    6.90
  -2  -2  -9   22.90    3.30
   2  -2   9   25.80    6.70
   2  -2   9   30.70    4.90
   2  -2   9   27.00    6.50
  -2  -2  -9   28.40    6.70
  -2   2  -9   19.70    3.90
   2   2   9   19.40    5.70
   2   2   9   16.30    5.20
  -2   2  -9   21.50    6.40
  -2   2  -9   30.60    6.70
   2   2   9   25.60    5.00
   4  -2   9   16.60    5.40
   4  -2   9   17.50    8.10
   4  -2   9   25.60    8.00
  -4  -2  -9   34.50    5.60
   4  -2   9   23.00    5.00
   4   2   9   37.70    7.70
  -4   2  -9   32.10    4.80
   4   2   9   28.50    6.90
   4   2   9   27.60    7.10
   6  -2   9   21.90   11.40
   6  -2   9   43.60   11.10
   6  -2   9   20.40   10.80
   6   2   9   18.80    9.70
   6   2   9   32.00    9.90
   6   2   9   21.10    7.50
   6   2   9   32.50    8.70
  11  -3  -9    8.50    5.30
  11   3  -9    5.40    6.70
  11   3  -9   11.50    5.40
  -9  -3   9  293.27   16.30
   9  -3  -9  277.77   17.20
   9  -3  -9  288.07   17.20
   9  -3  -9  246.68   15.40
   9   3  -9  265.07   15.50
   9   3  -9  281.67   17.00
   9   3  -9  275.97   15.50
   7  -3  -9   16.20    5.90
   7  -3  -9   15.60    4.80
   7  -3  -9    5.40    5.00
  -7  -3   9    5.60    4.90
   7  -3  -9    4.60    4.50
   7  -3  -9    3.90    3.00
   7   3  -9    9.30    4.50
   7   3  -9    7.20    3.60
   7   3  -9   12.20    4.20
   7   3  -9    9.00    4.70
  -7   3   9   14.50    4.40
   7   3  -9    3.80    3.50
   5  -3  -9   44.20    5.00
  -5  -3   9   47.90    5.60
   5  -3  -9   37.20    5.70
  -5  -3   9   42.30    8.00
   5  -3  -9   54.19   10.00
  -5  -3   9   36.60    5.80
   5  -3  -9   35.60    5.40
  -5  -3   9   52.89    7.20
  -5   3   9   45.40    5.30
   5   3  -9   41.60    5.20
  -5   3   9   53.69    6.50
   5   3  -9   35.30    6.20
   5   3  -9   46.70    6.50
   5   3  -9   38.30    6.90
  -5   3   9   35.30    5.20
   5   3  -9   34.00    7.20
  -3  -3   9   22.50    4.30
   3  -3  -9   42.20    7.90
   3  -3  -9   28.40    5.80
   3  -3  -9   23.20    5.10
   3  -3  -9   35.00    4.20
  -3  -3   9   27.00    4.10
   3  -3  -9   19.50    4.90
  -3  -3   9   27.60    5.90
  -3  -3   9   26.40    5.70
  -3  -3   9   25.30    3.70
   3   3  -9   25.20    5.50
  -3   3   9   29.30    5.10
   3   3  -9   38.10    4.70
   3   3  -9   22.90    4.70
  -3   3   9   23.60    4.90
   3   3  -9   31.40    5.10
   3   3  -9   19.60    4.30
  -3   3   9   26.10    4.10
  -1  -3   9   48.60    8.90
   1  -3  -9   45.10    5.00
   1  -3  -9   48.00    8.60
   1  -3  -9   33.10    6.70
  -1  -3   9   58.19    6.40
  -1  -3   9   54.69    9.40
   1   3  -9   47.60    7.80
  -1   3   9   49.80    8.00
  -1   3   9   44.40    7.70
   1   3  -9   42.90    5.30
  -1   3   9   47.50    6.50
   1   3  -9   42.10    8.40
  -1  -3  -9  140.09   13.60
  -1  -3  -9  154.78   13.30
   1  -3   9  151.68   13.40
   1  -3   9  134.89   10.60
   1  -3   9  140.29   12.70
   1   3   9  146.19   12.00
  -1   3  -9  111.89   12.30
   1   3   9  124.69   10.40
   1   3   9  141.79   11.60
  -1   3  -9  132.99    9.30
  -1   3  -9  143.19   12.20
   3  -3   9   98.09    9.30
  -3  -3  -9  108.09    7.40
   3  -3   9   99.89   13.80
   3  -3   9   95.09   10.20
   3  -3   9  113.69   13.50
   3   3   9  108.49   11.90
   3   3   9   68.79   12.10
  -3   3  -9   88.89    8.20
  -3   3  -9   67.49   13.50
   3   3   9   82.59   10.30
   5  -3   9   17.40    7.30
   5  -3   9    3.90    6.40
   5  -3   9   10.00   10.10
   5  -3   9    5.30    9.90
   5   3   9   -5.80    8.30
   5   3   9   -4.50    9.20
  -5   3  -9   19.60    6.50
   5   3   9    0.40    7.20
  -5   3  -9    1.70    5.50
  10  -4  -9    1.30    5.40
 -10  -4   9    8.80    6.90
  10   4  -9   13.10    7.00
  10   4  -9    9.10    5.30
   8  -4  -9   28.20    5.40
  -8  -4   9   36.10    6.10
   8   4  -9   44.30    7.20
   8   4  -9   25.30    6.60
   8   4  -9   35.20    6.50
   6  -4  -9    0.70    6.10
   6  -4  -9    0.70    3.30
  -6  -4   9    2.70    4.10
  -6  -4   9  -10.50    5.90
   6  -4  -9    0.40    6.30
   6   4  -9   -0.30    5.40
   6   4  -9   -6.90    3.80
   6   4  -9   -1.50    3.80
  -6   4   9   -2.30    5.40
   6   4  -9    6.80    5.00
  -4  -4   9    7.60    3.70
   4  -4  -9    5.20    6.30
   4  -4  -9   -6.00    6.30
  -4  -4   9    3.40    9.20
  -4  -4   9   10.30    6.10
   4  -4  -9   -0.50    3.00
  -4   4   9   -3.20    5.10
   4   4  -9   -0.20    4.30
  -4   4   9    7.40    5.40
   4   4  -9   -4.60    5.20
  -4   4   9    4.90    4.50
   4   4  -9    4.40    3.60
   4   4  -9    0.00    5.80
  -2  -4   9   12.60    6.70
  -2  -4   9    4.80    3.70
  -2  -4   9   11.60    4.40
  -2  -4   9    5.90    6.40
   2  -4  -9   -7.50    6.40
   2  -4  -9    6.50    3.20
   2  -4  -9    6.00    6.40
  -2   4   9    8.70    5.50
  -2   4   9    3.00    4.60
   2   4  -9    7.50    6.60
  -2   4   9    3.70    4.20
   2   4  -9    4.90    3.30
   2   4  -9   -0.30    4.20
   2   4  -9    9.40    5.60
   0  -4   9    3.60    4.60
   0  -4   9    2.50    6.90
   0  -4  -9    4.80    3.20
   0  -4  -9    8.40    7.90
   0   4   9    2.90    4.20
   0   4   9    6.30    5.70
   0   4  -9    5.10    4.20
   0   4  -9    0.60    3.40
   0   4  -9   -8.20    7.40
   0   4   9   10.70    6.30
  -2  -4  -9   11.60    3.80
   2  -4   9   14.50    5.00
   2  -4   9   25.80    6.30
   2  -4   9   26.90    9.10
  -2   4  -9   20.10    4.60
   2   4   9    8.20    5.40
   2   4   9   21.70    7.70
  -2   4  -9   10.00    5.40
  -2   4  -9    3.20    8.60
   2   4   9    6.30    7.40
   4  -4   9   24.00   10.40
   4  -4   9    4.20    8.40
   4  -4   9   12.10    6.70
  -4   4  -9   18.70    6.00
   4   4   9   10.90    9.60
  -4   4  -9   13.40    6.60
   4   4   9    8.40    9.70
   4   4   9   21.30    9.20
  -7  -5   9   -4.60    5.50
   7   5  -9    7.50    5.60
   7   5  -9   -1.40    5.70
  -5  -5   9    1.90    8.60
  -5  -5   9   23.90    5.50
   5  -5  -9   25.10   10.90
   5   5  -9   25.30    5.60
  -5   5   9   23.40    6.50
  -5   5   9   11.60    4.90
   5   5  -9   19.10    5.30
  -5   5   9   21.40    7.30
  -3  -5   9    4.40    8.40
   3  -5  -9   22.00    9.70
  -3  -5   9   10.10    5.00
   3  -5  -9   15.30    4.10
   3   5  -9   20.30    5.90
  -3   5   9   23.60   10.10
  -3   5   9    2.60    6.80
   3   5  -9   11.40    8.00
   3   5  -9   18.40    4.90
  -3   5   9    8.40    4.90
  -3   5   9   17.80    6.00
  -1  -5   9   12.50    6.00
   1  -5  -9   23.90   12.60
   1  -5  -9   21.60    4.80
  -1  -5   9   30.90    9.20
  -1  -5   9   23.30   12.70
  -1   5   9   15.70    7.60
   1   5  -9   32.40    5.90
   1   5  -9   33.20    6.60
  -1   5   9   35.30    7.90
  -1   5   9   17.50    5.60
  -1  -5  -9   77.69    8.00
   1  -5   9   66.59    9.70
   1  -5   9   97.79   16.20
   1  -5   9   69.69   15.10
   1  -5   9   69.79   11.40
   1   5   9   76.39   11.20
  -1   5  -9   64.89   10.30
   1   5   9  104.89   15.00
   1   5   9   78.79   13.80
  -1   5  -9   70.19    9.00
  10   0 -10   33.70    4.90
  10   0 -10   38.40    5.30
   8   0 -10   19.10    4.20
   8   0 -10   18.20    3.60
   6   0 -10    6.60    2.70
   6   0 -10    7.60    3.50
  -6   0  10    0.20    4.00
   6   0 -10   13.90    4.10
   6   0 -10    7.00    4.40
   4   0 -10    2.00    3.10
   4   0 -10    3.20    3.90
  -4   0  10    3.10    4.20
   4   0 -10    3.70    4.60
   4   0 -10    5.10    2.30
  -4   0  10    2.70    3.90
  -4   0  10    4.90    2.70
   2   0 -10   -4.20    3.50
  -2   0  10   -1.90    3.00
   2   0 -10   -1.00    2.20
   2   0 -10    3.70    4.40
   2   0 -10   -6.70    4.20
  -2   0  10    3.30    4.20
  -2   0  10   -4.20    4.30
   0   0  10    3.40    3.70
   0   0 -10   -0.20    2.70
   0   0 -10   -4.90    5.10
   0   0 -10    6.20    5.30
   0   0  10    8.60    5.20
   2   0  10    9.30    6.30
  -2   0 -10   10.10    3.60
   2   0  10   12.30    4.70
   2   0  10   23.20    6.90
  -2   0 -10   10.30    6.70
   4   0  10    8.50    4.70
   4   0  10   16.50    6.40
   4   0  10   14.30    8.50
  -4   0 -10    0.50    4.50
  11  -1 -10    4.80    4.20
  11   1 -10   18.90    4.70
  11   1 -10    6.90    6.00
   9  -1 -10   71.89    8.50
   9  -1 -10   64.09    6.80
   9   1 -10   73.59    7.70
   9   1 -10   73.79    7.00
   7  -1 -10    2.50    2.70
   7  -1 -10    8.20    3.70
   7  -1 -10    2.30    5.40
   7  -1 -10    0.70    4.60
   7   1 -10    5.00    3.50
   7   1 -10    8.70    3.20
   7   1 -10    2.00    4.30
  -5  -1  10   58.99    6.80
   5  -1 -10   69.49    7.20
  -5  -1  10   62.49    7.90
   5  -1 -10   69.69    5.50
   5  -1 -10   66.39    8.00
   5  -1 -10   73.69    8.30
  -5   1  10   91.59   11.70
  -5   1  10   58.59    7.60
   5   1 -10   67.79    7.20
   5   1 -10   69.69    5.90
   5   1 -10   54.19    7.50
  -3  -1  10   33.90    6.20
   3  -1 -10   37.10    7.60
  -3  -1  10   36.50    5.50
   3  -1 -10   27.40    4.30
  -3  -1  10   35.60    5.30
   3  -1 -10   27.60    5.40
   3  -1 -10   32.60    5.00
   3   1 -10   35.10    5.10
   3   1 -10   40.10    6.90
  -3   1  10   37.80    7.00
   3   1 -10   30.20    4.60
  -3   1  10   26.70    5.40
   3   1 -10   27.50    5.40
   1  -1 -10  347.67   17.10
   1  -1 -10  293.67   18.80
   1  -1 -10  282.17   20.30
  -1  -1  10  346.27   18.00
  -1  -1  10  306.77   18.70
   1   1 -10  360.76   18.60
  -1   1  10  336.57   18.70
   1   1 -10  318.57   18.90
   1   1 -10  341.77   17.30
  -1   1  10  322.27   18.90
  -1   1  10  339.17   18.00
   1  -1  10   10.00    6.40
  -1  -1 -10   19.10    6.80
   1  -1  10   15.90    6.10
  -1  -1 -10   20.30    6.90
   1  -1  10   11.50    4.30
  -1  -1 -10   12.00    3.40
  -1   1 -10   11.20    6.50
   1   1  10   12.20    4.50
  -1   1 -10   15.40    5.90
   1   1  10   12.90    6.30
  -1   1 -10    8.00    3.40
   1   1  10   11.40    5.70
   3  -1  10   10.30    7.00
   3  -1  10   10.00    5.70
  -3  -1 -10   16.40    4.20
   3  -1  10   18.70    8.20
   3  -1  10    7.90    4.40
  -3   1 -10    4.30    4.20
   3   1  10    4.60    7.00
  -3   1 -10   11.30    9.20
   3   1  10   18.20    8.10
   3   1  10   13.30    5.60
  10  -2 -10   36.30    5.50
  10  -2 -10   60.19    9.90
  10   2 -10   43.30    7.60
  10   2 -10   31.10    5.30
   8  -2 -10   20.40    4.00
   8  -2 -10   34.00    6.20
  -8  -2  10   20.70    4.60
   8  -2 -10   20.00    5.30
   8  -2 -10   29.30    6.00
   8   2 -10   17.40    4.30
   8   2 -10   23.40    4.90
   8   2 -10   24.40    6.00
   6  -2 -10    2.90    2.70
  -6  -2  10    6.50    3.30
   6  -2 -10    5.90    4.40
   6  -2 -10   11.30    5.40
  -6  -2  10   10.30    5.20
  -6   2  10    4.50    4.40
   6   2 -10   -0.80    4.20
   6   2 -10    3.50    4.60
  -6   2  10    0.70    3.90
   6   2 -10   13.00    4.10
   6   2 -10   -0.90    3.20
  -4  -2  10   -1.40    5.20
   4  -2 -10    6.70    4.00
  -4  -2  10    2.40    4.70
   4  -2 -10   -0.30    2.50
   4  -2 -10   -4.50    4.80
  -4  -2  10    4.90    3.10
   4  -2 -10   -6.80    4.50
  -4   2  10    2.80    4.50
   4   2 -10   -7.20    4.00
  -4   2  10   -4.20    4.20
   4   2 -10   -2.40    4.60
  -4   2  10   -0.10    3.00
   4   2 -10    7.40    4.90
   4   2 -10   -0.40    2.70
  -2  -2  10   -2.60    2.50
  -2  -2  10   -1.50    5.40
  -2  -2  10    6.50    6.10
  -2  -2  10    0.80    4.80
   2  -2 -10   11.10    5.60
   2  -2 -10   -2.20    2.50
   2  -2 -10    1.90    5.30
   2   2 -10    6.40    5.30
  -2   2  10    8.60    5.00
   2   2 -10    2.90    5.00
  -2   2  10   -0.20    3.40
   2   2 -10   -1.00    2.50
  -2   2  10   -6.60    4.30
   0  -2  10   -6.60    5.70
   0  -2 -10    8.90    6.50
   0  -2  10   -1.70    5.90
   0  -2 -10    4.90    6.40
   0  -2  10    9.50    4.40
   0  -2 -10    4.60    3.20
   0   2  10   -0.30    5.10
   0   2 -10    6.30    6.20
   0   2 -10    3.00    3.60
   0   2  10    9.40    5.70
   0   2 -10   -2.20    5.80
   0   2  10    3.60    4.00
   2  -2  10    2.30    7.70
  -2  -2 -10   13.10    3.90
  -2  -2 -10   16.30    8.40
   2  -2  10    9.90    7.80
   2  -2  10    8.60    4.90
   2   2  10   15.30    7.10
   2   2  10    2.10    8.20
   2   2  10    7.00    5.30
  -2   2 -10    5.80    4.00
  -2   2 -10   -6.40    7.50
   4  -2  10    9.30    6.00
   4  -2  10   16.20    7.10
   4  -2  10   -2.40    9.90
  -4  -2 -10   -2.60    4.90
   4  -2  10    6.30    9.90
   4   2  10    4.80    6.60
   4   2  10   -9.60    9.00
   4   2  10   -3.20    6.10
   4   2  10   13.00    9.30
  -4   2 -10    8.50    5.60
  -9  -3  10   54.09    7.50
   9  -3 -10   58.29    7.50
   9   3 -10   45.30    6.70
   9   3 -10   61.09    9.10
   9   3 -10   56.29    9.80
  -7  -3  10    2.10    4.30
   7  -3 -10    4.30    3.80
  -7   3  10   -1.80    5.40
   7   3 -10    4.70    4.40
   7   3 -10    5.10    3.90
   7   3 -10   -8.20    5.60
   5  -3 -10   47.20   10.00
  -5  -3  10   41.20    5.20
   5  -3 -10   38.30    7.60
  -5  -3  10   49.20    7.40
  -5  -3  10   41.00    7.40
   5  -3 -10   45.70    5.50
   5   3 -10   39.30    6.00
   5   3 -10   57.59    8.70
  -5   3  10   44.00    8.20
  -5   3  10   57.09    6.10
   5   3 -10   38.50    6.00
  -5   3  10   36.80    6.20
   3  -3 -10   24.90    4.20
  -3  -3  10   24.00    4.80
  -3  -3  10   25.90    4.40
  -3  -3  10   32.00    7.20
  -3  -3  10   16.10    6.90
   3  -3 -10   25.70    6.80
  -3   3  10   30.80    6.50
   3   3 -10   20.10    4.00
   3   3 -10   19.40    6.10
   3   3 -10   29.90    6.20
  -3   3  10   19.60    5.70
  -3   3  10   19.40    4.50
   1  -3 -10  250.77   13.50
  -1  -3  10  268.07   18.80
  -1  -3  10  230.58   17.30
  -1  -3  10  248.98   14.80
   1  -3 -10  240.58   17.50
   1   3 -10  246.78   13.90
   1   3 -10  216.58   16.40
  -1   3  10  220.88   15.70
   1   3 -10  275.27   16.80
  -1   3  10  236.88   14.90
  -1   3  10  204.48   16.30
  -1  -3 -10   15.60    4.00
   1  -3  10    6.20    7.90
  -1  -3 -10   15.60    9.30
   1  -3  10   20.00    8.40
   1  -3  10    2.50    5.40
   1   3  10    4.80    7.20
  -1   3 -10    6.60    7.80
   1   3  10   13.50    5.70
   1   3  10   10.10    5.60
  -1   3 -10   12.90    4.70
  -3  -3 -10    8.70    4.70
   3  -3  10   16.00   10.80
   3  -3  10   -1.10   10.00
   3  -3  10    1.00    6.70
   3  -3  10    3.40    5.90
   3   3  10   18.10    7.10
  -3   3 -10    4.00    5.30
   3   3  10    1.60    8.00
   3   3  10   13.20    9.30
   8  -4 -10    4.00    5.90
   8   4 -10    8.30    6.00
  -6  -4  10    1.90    5.10
   6  -4 -10    9.90    4.10
   6   4 -10   -0.90    4.10
  -6   4  10   15.60    6.80
   6   4 -10    4.00    5.40
   4  -4 -10    8.30    7.90
  -4  -4  10   -1.10    4.50
   4  -4 -10   -1.90    3.70
  -4  -4  10   -2.60    7.50
  -4   4  10    5.80    4.50
  -4   4  10   -4.50    6.00
   4   4 -10   -4.40    7.00
   4   4 -10    2.80    3.80
   4   4 -10   14.50    5.90
  -2  -4  10    6.10    5.50
  -2  -4  10   -0.50    8.20
  -2  -4  10   -2.30    4.10
   2  -4 -10   -4.00    3.70
  -2   4  10   -1.20    6.50
   2   4 -10   -4.20    4.80
  -2   4  10   -1.10    7.20
   2   4 -10    0.00    4.20
   2   4 -10    3.90    7.20
  -2   4  10    3.10    4.90
   0  -4  10   20.70   12.00
   0  -4  10   -0.50    6.00
   0  -4  10    7.30    9.90
   0  -4 -10    4.30    4.00
   0   4 -10   -5.50    5.00
   0   4  10   -2.10    6.00
   0   4  10   11.90    7.50
   0   4  10   -6.20    8.10
   5  -5 -10   16.20    5.50
   5   5 -10   27.20    6.60
  -5   5  10   14.60    6.10
   5   5 -10   32.80    8.80
  -3  -5  10    7.00    6.40
   3  -5 -10    8.60    5.20
  -3  -5  10   28.60   11.10
  -3   5  10   14.80    9.10
   3   5 -10   21.50    6.80
  -3   5  10   12.90    6.60
   3   5 -10   15.40    6.20
  10   0 -11   14.40    5.30
   8   0 -11   26.10    5.70
   8   0 -11   31.00    5.40
   6   0 -11   93.39   10.20
   6   0 -11   94.39    7.60
   6   0 -11   87.09    9.50
  -6   0  11   94.59   10.00
  -4   0  11    5.00    9.90
   4   0 -11    1.30    5.20
   4   0 -11   17.10    5.80
  -4   0  11    3.00    5.50
  -4   0  11    1.90    3.40
   4   0 -11    5.40    2.80
   2   0 -11  218.28   15.80
  -2   0  11  248.78   15.90
   2   0 -11  197.78   15.20
   2   0 -11  233.88   13.00
  -2   0  11  229.48   13.80
  -2   0  11  209.58   15.80
   0   0 -11    7.60    7.10
   0   0  11   -4.70    7.10
   0   0  11    8.00    4.90
   0   0 -11    5.50    4.00
   2   0  11  -15.70    8.90
   2   0  11   13.50    5.90
   2   0  11   23.10    9.10
  -2   0 -11    6.60    4.70
  -2   0 -11  -17.60   16.30
   9  -1 -11    5.60    4.10
   9   1 -11   -4.90    5.10
   9   1 -11    8.70    4.60
   7  -1 -11   56.89    6.60
   7   1 -11   64.19    6.90
   5  -1 -11   27.10    6.70
   5  -1 -11   27.00    4.30
  -5  -1  11   32.70    6.50
   5  -1 -11   18.60    6.20
   5   1 -11   44.30    8.70
   5   1 -11   34.30    5.60
   5   1 -11   28.70    5.80
  -5   1  11   32.00    6.40
   3  -1 -11   -2.40    2.90
  -3  -1  11    1.90    5.50
   3  -1 -11   -5.70    5.70
  -3  -1  11    7.60    4.90
  -3  -1  11    9.70    6.50
   3   1 -11   -6.20    5.90
  -3   1  11    1.20    4.10
  -3   1  11   -1.70    5.60
   3   1 -11    0.90    5.30
   3   1 -11   -3.30    3.10
  -1  -1  11   18.00    6.80
  -1  -1  11    9.40    7.50
   1  -1 -11   24.40    7.10
   1  -1 -11   19.20    3.90
  -1  -1  11   20.50    5.30
   1  -1 -11   25.40    7.70
   1   1 -11   14.70    4.50
  -1   1  11   19.40    6.50
  -1   1  11   12.80    7.10
   1   1 -11   12.70    7.50
   1   1 -11   24.30    7.00
  -1   1  11   16.20    5.20
   1  -1  11    6.60    8.80
   1  -1  11    8.30    5.70
  -1  -1 -11   18.10    9.30
   1  -1  11   14.50    7.80
  -1  -1 -11   12.10    4.60
  -1   1 -11    9.90    9.20
  -1   1 -11   14.20    4.70
   1   1  11   16.30    5.40
   1   1  11    2.10    7.40
   8  -2 -11   24.80    5.40
   8   2 -11   13.70    4.90
   8   2 -11   13.20    6.30
   6  -2 -11   74.59    7.00
   6   2 -11   71.59    7.80
  -6   2  11   84.89   10.40
   4  -2 -11   16.60   10.60
  -4  -2  11   -2.80    3.80
   4  -2 -11    1.30    3.30
  -4  -2  11    3.50    6.70
   4  -2 -11    0.00    6.70
  -4   2  11    7.20    4.10
   4   2 -11   -0.70    3.60
  -4   2  11    1.20    5.70
   4   2 -11   -2.70    5.80
   2  -2 -11  190.08   11.70
  -2  -2  11  194.28   13.00
   2  -2 -11  189.18   16.50
  -2  -2  11  170.58   26.20
   2  -2 -11  211.08   17.00
  -2   2  11  208.78   13.00
   2   2 -11  161.08   15.10
  -2   2  11  174.18   14.80
   2   2 -11  203.78   12.00
  -2   2  11  228.28   15.60
   2   2 -11  158.58   18.80
   0  -2  11    6.20    8.60
   0  -2 -11   11.20    4.20
   0  -2  11    0.60    5.30
   0  -2  11    3.30    8.50
   0  -2 -11    0.50   11.30
   0   2  11    6.80    7.30
   0   2  11  -12.10    7.70
   0   2  11    5.90    5.40
  -2  -2 -11    1.80    4.90
   2  -2  11  -10.20   10.20
   2  -2  11  -15.80   10.40
   2  -2  11    1.70    6.80
   2   2  11    8.00    9.90
  -2   2 -11   -0.40    5.20
   2   2  11    4.10    9.00
   2   2  11    7.50    6.80
   7  -3 -11   30.30    5.30
  -7  -3  11   44.80    6.50
   7   3 -11   35.30    6.20
   7   3 -11   37.90    7.40
   5  -3 -11   14.80    4.30
  -5  -3  11   17.50    5.10
   5   3 -11   15.00    4.50
   5   3 -11   20.40    6.30
  -5   3  11   17.00    4.50
  -5   3  11   20.10    6.90
  -3  -3  11   16.80    8.80
  -3  -3  11   -0.20    5.10
   3  -3 -11    1.60    3.90
   3  -3 -11   10.30    8.50
  -3  -3  11   -5.30    4.40
  -3   3  11   -8.20    5.90
  -3   3  11   -1.70    4.80
   3   3 -11   -6.40    8.50
   3   3 -11    5.40    3.90
   1  -3 -11   18.60    4.50
  -1  -3  11   31.40   10.00
  -1  -3  11   14.80    5.10
  -1  -3  11   16.10    5.60
   1   3 -11   11.60    4.70
  -1   3  11    9.30    5.70
  -1   3  11   18.20    7.30
   1  -3  11    2.50    7.10
   1   3  11    5.60    7.10
  -4  -4  11   -2.20    5.20
   4  -4 -11   -6.00    4.70
  -4   4  11   -7.20    8.20
   4   4 -11    8.80    6.60
  -4   4  11    3.60    5.70
   4   4 -11   -1.60    6.00
   8   0 -12   12.20    5.70
   6   0 -12  153.38   10.90
  -4   0  12    3.50    4.70
   4   0 -12    7.20    4.10
  -4   0  12  -12.30    7.40
  -2   0  12    7.10    5.60
   2   0 -12   -3.80    4.00
  -2   0  12   11.30    8.20
   0   0  12   20.80    7.10
   0   0  12   17.80    9.90
   0   0 -12   19.60    5.80
   7  -1 -12  163.78   11.90
   7   1 -12  178.68   12.10
   5  -1 -12    1.00    3.70
   5   1 -12    2.50    3.90
  -3  -1  12   11.60    5.20
   3  -1 -12    4.10    4.20
   3   1 -12    7.20    4.50
  -3   1  12    2.10    5.20
  -3   1  12   15.10    8.30
  -1  -1  12   11.10    6.00
  -1  -1  12   18.30    8.40
   1  -1 -12   13.70    4.90
   1   1 -12    7.10    5.20
  -1   1  12   10.00    9.00
  -1   1  12    4.80    5.90
   6  -2 -12  128.59   10.60
   6   2 -12  140.69   11.30
   4  -2 -12   -1.10    4.70
  -4   2  12    4.60    5.30
   4   2 -12    5.70    4.90
  -2  -2  12   -5.10   10.30
   2  -2 -12    4.70    4.90
  -2  -2  12    5.30    6.00
   2   2 -12   -1.60    4.80
  -2   2  12   -9.20    8.20
  -2   2  12   -1.30    5.80
   0   0   0    0.00    0.00

_computing_structure_solution     'SHELXT 2014/5 (Sheldrick, 2014)'
;
_shelx_hkl_checksum              36765
loop_
_space_group_symop_operation_xyz
'x, y, z'
'-x, y, -z'
'x+1/2, y+1/2, z'
'-x+1/2, y+1/2, -z'
'-x, -y, -z'
'x, -y, z'
'-x+1/2, -y+1/2, -z'
'x+1/2, -y+1/2, z'
loop_
_atom_site_label
_atom_site_type_symbol
_atom_site_fract_x
_atom_site_fract_y
_atom_site_fract_z
_atom_site_U_iso_or_equiv
_atom_site_adp_type
_atom_site_occupancy
_atom_site_site_symmetry_order
_atom_site_calc_flag
_atom_site_refinement_flags_posn
_atom_site_refinement_flags_adp
_atom_site_refinement_flags_occupancy
F1 F 0.76125(11) 0.5000 0.97938(13) 0.0191(3) Uani 1 2 d S T P
N1 N 0.33218(17) 0.5000 0.44923(19) 0.0196(4) Uani 1 2 d S T P
N2 N 0.02227(18) 0.5000 0.6963(2) 0.0235(4) Uani 1 2 d S T P
C5 C 0.52791(19) 0.5000 0.8524(2) 0.0143(4) Uani 1 2 d DS T P
C6 C 0.63140(17) 0.5000 0.9873(2) 0.0138(4) Uani 1 2 d S T P
C2 C 0.13778(19) 0.5000 0.7091(2) 0.0163(4) Uani 1 2 d S T P
C4 C 0.38735(18) 0.5000 0.8568(2) 0.0135(4) Uani 1 2 d S T P
C1 C 0.30968(19) 0.5000 0.5689(2) 0.0155(4) Uani 1 2 d S T P
C3 C 0.28096(19) 0.5000 0.7187(2) 0.0148(4) Uani 1 2 d S T P
H5 H 0.549(2) 0.5000 0.7394(12) 0.017(6) Uiso 1 2 d DS . P
loop_
_atom_site_aniso_label
_atom_site_aniso_U_11
_atom_site_aniso_U_22
_atom_site_aniso_U_33
_atom_site_aniso_U_23
_atom_site_aniso_U_13
_atom_site_aniso_U_12
F1 0.0144(5) 0.0297(6) 0.0156(5) 0.000 0.0083(4) 0.000
N1 0.0196(8) 0.0248(8) 0.0153(8) 0.000 0.0066(6) 0.000
N2 0.0209(8) 0.0297(9) 0.0193(8) 0.000 0.0048(6) 0.000
C5 0.0176(8) 0.0151(8) 0.0121(8) 0.000 0.0073(6) 0.000
C6 0.0142(8) 0.0153(8) 0.0137(8) 0.000 0.0072(6) 0.000
C2 0.0197(9) 0.0185(9) 0.0114(8) 0.000 0.0058(6) 0.000
C4 0.0174(8) 0.0116(8) 0.0125(8) 0.000 0.0060(6) 0.000
C1 0.0152(8) 0.0177(8) 0.0128(8) 0.000 0.0028(6) 0.000
C3 0.0176(8) 0.0146(8) 0.0136(8) 0.000 0.0066(6) 0.000
loop_
_atom_type_symbol
_atom_type_description
_atom_type_scat_dispersion_real
_atom_type_scat_dispersion_imag
_atom_type_scat_source
C C 0.0033 0.0016 'International Tables Vol C Tables 4.2.6.8 and 6.1.1.4'
H H 0.0000 0.0000 'International Tables Vol C Tables 4.2.6.8 and 6.1.1.4'
F F 0.0171 0.0103 'International Tables Vol C Tables 4.2.6.8 and 6.1.1.4'
N N 0.0061 0.0033 'International Tables Vol C Tables 4.2.6.8 and 6.1.1.4'
loop_
_geom_angle_atom_site_label_1
_geom_angle_atom_site_label_2
_geom_angle_atom_site_label_3
_geom_angle
_geom_angle_site_symmetry_3
C6 C5 C4 120.14(15) .
C6 C5 H5 120.4(11) .
C4 C5 H5 119.4(11) .
C5 C6 F1 118.77(15) .
C5 C6 C4 124.14(16) 5_667
F1 C6 C4 117.08(15) 5_667
N2 C2 C3 177.9(2) .
C3 C4 C5 120.32(16) .
C3 C4 C6 123.97(16) 5_667
C5 C4 C6 115.71(16) 5_667
N1 C1 C3 179.8(2) .
C4 C3 C2 125.10(16) .
C4 C3 C1 120.01(16) .
C2 C3 C1 114.89(16) .
loop_
_geom_bond_atom_site_label_1
_geom_bond_atom_site_label_2
_geom_bond_distance
_geom_bond_site_symmetry_2
F1 C6 1.3430(19) .
N1 C1 1.147(2) .
N2 C2 1.147(3) .
C5 C6 1.342(2) .
C5 C4 1.442(2) .
C5 H5 1.0828(11) .
C6 C4 1.447(2) 5_667
C2 C3 1.434(3) .
C4 C3 1.376(3) .
C4 C6 1.447(2) 5_667
C1 C3 1.439(3) .
