#------------------------------------------------------------------------------
#$Date: 2020-04-10 08:23:49 +0300 (Fri, 10 Apr 2020) $
#$Revision: 250632 $
#$URL: file:///home/coder/svn-repositories/cod/cif/2/02/20/2022053.cif $
#------------------------------------------------------------------------------
#
# This file is available in the Crystallography Open Database (COD),
# http://www.crystallography.net/. The original data for this entry
# were provided by IUCr Journals, http://journals.iucr.org/.
#
# The file may be used within the scientific community so long as
# proper attribution is given to the journal article from which the
# data were obtained.
#
data_2022053
loop_
_publ_author_name
'Jha, Kunal Kumar'
'Gruza, Barbara'
'Kumar, Prashant'
'Chodkiewicz, Michal Leszek'
'Dominiak, Paulina Maria'
_publ_section_title
;
 TAAM: a reliable and user friendly tool for hydrogen-atom location using
 routine X-ray diffraction data
;
_journal_issue                   3
_journal_name_full
'Acta Crystallographica Section B Structural Science, Crystal Engineering and Materials'
_journal_paper_doi               10.1107/S2052520620002917
_journal_volume                  76
_journal_year                    2020
_chemical_formula_moiety         'C6 H8 O2'
_chemical_formula_sum            'C6 H8 O2'
_chemical_formula_weight         112.13
_space_group_crystal_system      monoclinic
_space_group_IT_number           12
_space_group_name_Hall           '-C 2y'
_space_group_name_H-M_alt        'C 1 2/m 1'
_symmetry_Int_Tables_number      12
_audit_creation_date             2019-08-07
_audit_creation_method
;
Olex2 1.2
(compiled 2018.05.29 svn.r3508 for OlexSys, GUI svn.r5506)
;
_cell_angle_alpha                90
_cell_angle_beta                 93.69(2)
_cell_angle_gamma                90
_cell_formula_units_Z            4
_cell_length_a                   12.402(3)
_cell_length_b                   6.470(2)
_cell_length_c                   6.321(2)
_cell_measurement_temperature    100
_cell_volume                     506.2(3)
_computing_molecular_graphics    'Olex2 (Dolomanov et al., 2009)'
_computing_publication_material  'Olex2 (Dolomanov et al., 2009)'
_computing_structure_refinement  'olex2.refine (Bourhis et al., 2015)'
_diffrn_ambient_temperature      100
_diffrn_measured_fraction_theta_full 0.8443
_diffrn_measured_fraction_theta_max 0.8443
_diffrn_measurement_device_type  'Huber, ID11/ESRF'
_diffrn_radiation_type           synchrotron
_diffrn_radiation_wavelength     0.21784
_diffrn_reflns_av_R_equivalents  0.0000
_diffrn_reflns_av_unetI/netI     0.1775
_diffrn_reflns_limit_h_max       36
_diffrn_reflns_limit_h_min       -37
_diffrn_reflns_limit_k_max       19
_diffrn_reflns_limit_k_min       0
_diffrn_reflns_limit_l_max       19
_diffrn_reflns_limit_l_min       0
_diffrn_reflns_number            7434
_diffrn_reflns_theta_full        89.7231
_diffrn_reflns_theta_max         89.72
_diffrn_reflns_theta_min         3.23
_exptl_absorpt_coefficient_mu    0.110
_exptl_crystal_density_diffrn    1.4713
_exptl_crystal_F_000             240.1504
_refine_diff_density_max         0.6320
_refine_diff_density_min         -0.2556
_refine_diff_density_rms         0.0532
_refine_ls_d_res_high            0.3554
_refine_ls_d_res_low             6.3079
_refine_ls_goodness_of_fit_ref   1.2633
_refine_ls_hydrogen_treatment    refall
_refine_ls_matrix_type           full
_refine_ls_number_constraints    0
_refine_ls_number_parameters     67
_refine_ls_number_reflns         5211
_refine_ls_number_restraints     0
_refine_ls_restrained_S_all      1.2633
_refine_ls_R_factor_all          0.0250
_refine_ls_R_factor_gt           0.0250
_refine_ls_shift/su_max          0.0002
_refine_ls_shift/su_mean         0.0000
_refine_ls_structure_factor_coef Fsqd
_refine_ls_weighting_details
'w=1/[\s^2^(Fo^2^)+(0.0096P)^2^] where P=(Fo^2^+2Fc^2^)/3'
_refine_ls_weighting_scheme      calc
_refine_ls_wR_factor_gt          0.0649
_refine_ls_wR_factor_ref         0.0649
_reflns_Friedel_coverage         0.0
_reflns_limit_h_max              34
_reflns_limit_h_min              -34
_reflns_limit_k_max              17
_reflns_limit_k_min              0
_reflns_limit_l_max              17
_reflns_limit_l_min              0
_reflns_number_gt                5211
_reflns_number_total             5211
_reflns_threshold_expression     I>=2u(I)
_iucr_refine_instructions_details
;
TITL 2-METHYL OLEX2: imported from CIF
CELL 0.71073 12.402 6.47 6.321 90 93.69 90
ZERR 4 0 0 0 0 0 0
LATT 7
SYMM -X,+Y,-Z
SFAC C H O
UNIT 24 32 8

L.S. 20
PLAN  20
BOND 
BOND $H
CONF 
fmap 2 53
acta 
OMIT 36 2 0
OMIT 27 3 0
OMIT 0 4 0
OMIT 36 4 0
OMIT 9 5 0
OMIT 11 5 0
OMIT 27 5 0
OMIT 6 6 0
OMIT 34 6 0
OMIT 27 7 0
OMIT 34 8 0
OMIT 25 9 0
OMIT 27 9 0
OMIT 4 10 0
OMIT 22 10 0
OMIT 24 10 0
OMIT 1 11 0
OMIT 25 11 0
OMIT 27 11 0
OMIT 4 12 0
OMIT 22 12 0
OMIT 24 12 0
OMIT 1 13 0
OMIT 3 13 0
OMIT 11 13 0
OMIT 23 13 0
OMIT 25 13 0
OMIT 27 13 0
OMIT 4 14 0
OMIT 6 14 0
OMIT 8 14 0
OMIT 12 14 0
OMIT 22 14 0
OMIT 24 14 0
OMIT 1 15 0
OMIT 3 15 0
OMIT 11 15 0
OMIT 19 15 0
OMIT 23 15 0
OMIT 4 16 0
OMIT 6 16 0
OMIT 8 16 0
OMIT 12 16 0
OMIT 14 16 0
OMIT 3 17 0
OMIT 5 17 0
OMIT 9 17 0
OMIT 11 17 0
OMIT 13 17 0
OMIT 17 17 0
OMIT 4 18 0
OMIT 6 18 0
OMIT 8 18 0
OMIT 10 18 0
OMIT 12 18 0
OMIT 14 18 0
OMIT -24 0 1
OMIT -20 0 1
OMIT 16 0 1
OMIT 32 0 1
OMIT 34 0 1
OMIT 36 0 1
OMIT -35 1 1
OMIT 35 1 1
OMIT -24 2 1
OMIT -20 2 1
OMIT 16 2 1
OMIT 32 2 1
OMIT 34 2 1
OMIT 36 2 1
OMIT -37 3 1
OMIT -35 3 1
OMIT 11 3 1
OMIT 33 3 1
OMIT 35 3 1
OMIT -24 4 1
OMIT 16 4 1
OMIT 32 4 1
OMIT 36 4 1
OMIT -35 5 1
OMIT -31 5 1
OMIT 33 5 1
OMIT 35 5 1
OMIT -30 6 1
OMIT -24 6 1
OMIT -14 6 1
OMIT 32 6 1
OMIT 34 6 1
OMIT -31 7 1
OMIT 33 7 1
OMIT -30 8 1
OMIT -24 8 1
OMIT 32 8 1
OMIT 34 8 1
OMIT -31 9 1
OMIT -17 9 1
OMIT -30 10 1
OMIT -24 10 1
OMIT -6 10 1
OMIT 32 10 1
OMIT -17 11 1
OMIT 27 11 1
OMIT -24 12 1
OMIT -22 12 1
OMIT -14 12 1
OMIT -6 12 1
OMIT 4 12 1
OMIT -17 13 1
OMIT 13 13 1
OMIT 25 13 1
OMIT 27 13 1
OMIT -26 14 1
OMIT -24 14 1
OMIT -22 14 1
OMIT -20 14 1
OMIT -14 14 1
OMIT -6 14 1
OMIT 4 14 1
OMIT 24 14 1
OMIT 26 14 1
OMIT -17 15 1
OMIT -15 15 1
OMIT 3 15 1
OMIT 11 15 1
OMIT 13 15 1
OMIT 19 15 1
OMIT 23 15 1
OMIT -20 16 1
OMIT -16 16 1
OMIT -14 16 1
OMIT -12 16 1
OMIT -8 16 1
OMIT -6 16 1
OMIT -4 16 1
OMIT 2 16 1
OMIT 4 16 1
OMIT 6 16 1
OMIT 16 16 1
OMIT 18 16 1
OMIT -17 17 1
OMIT -15 17 1
OMIT -9 17 1
OMIT -3 17 1
OMIT 7 17 1
OMIT 9 17 1
OMIT 11 17 1
OMIT 13 17 1
OMIT -14 18 1
OMIT -12 18 1
OMIT -10 18 1
OMIT -8 18 1
OMIT -6 18 1
OMIT -4 18 1
OMIT -2 18 1
OMIT 6 18 1
OMIT 14 18 1
OMIT -34 0 2
OMIT 22 0 2
OMIT 28 0 2
OMIT 30 0 2
OMIT 19 1 2
OMIT 21 1 2
OMIT 23 1 2
OMIT 31 1 2
OMIT 33 1 2
OMIT 35 1 2
OMIT -34 2 2
OMIT -20 2 2
OMIT -8 2 2
OMIT 22 2 2
OMIT 28 2 2
OMIT 30 2 2
OMIT -31 3 2
OMIT -29 3 2
OMIT -27 3 2
OMIT 19 3 2
OMIT 21 3 2
OMIT 23 3 2
OMIT 29 3 2
OMIT 31 3 2
OMIT 33 3 2
OMIT 35 3 2
OMIT -34 4 2
OMIT -20 4 2
OMIT 4 4 2
OMIT 22 4 2
OMIT 28 4 2
OMIT 30 4 2
OMIT -31 5 2
OMIT -29 5 2
OMIT -27 5 2
OMIT -11 5 2
OMIT 19 5 2
OMIT 21 5 2
OMIT 23 5 2
OMIT 29 5 2
OMIT 31 5 2
OMIT 33 5 2
OMIT 35 5 2
OMIT -34 6 2
OMIT -20 6 2
OMIT -14 6 2
OMIT 22 6 2
OMIT 28 6 2
OMIT 30 6 2
OMIT 34 6 2
OMIT -35 7 2
OMIT -29 7 2
OMIT -27 7 2
OMIT 21 7 2
OMIT 23 7 2
OMIT 29 7 2
OMIT 31 7 2
OMIT 33 7 2
OMIT -34 8 2
OMIT -32 8 2
OMIT -20 8 2
OMIT 22 8 2
OMIT 28 8 2
OMIT 30 8 2
OMIT 32 8 2
OMIT -33 9 2
OMIT -31 9 2
OMIT -29 9 2
OMIT -27 9 2
OMIT 21 9 2
OMIT 23 9 2
OMIT 29 9 2
OMIT 31 9 2
OMIT -32 10 2
OMIT -30 10 2
OMIT -28 10 2
OMIT -20 10 2
OMIT -12 10 2
OMIT 0 10 2
OMIT 22 10 2
OMIT 28 10 2
OMIT 30 10 2
OMIT -29 11 2
OMIT -27 11 2
OMIT -13 11 2
OMIT -5 11 2
OMIT 21 11 2
OMIT 23 11 2
OMIT 27 11 2
OMIT 29 11 2
OMIT -28 12 2
OMIT -20 12 2
OMIT -12 12 2
OMIT 0 12 2
OMIT 2 12 2
OMIT 14 12 2
OMIT 20 12 2
OMIT 22 12 2
OMIT 26 12 2
OMIT 28 12 2
OMIT -27 13 2
OMIT -13 13 2
OMIT -5 13 2
OMIT 21 13 2
OMIT 23 13 2
OMIT 25 13 2
OMIT 27 13 2
OMIT -20 14 2
OMIT -4 14 2
OMIT 0 14 2
OMIT 2 14 2
OMIT 14 14 2
OMIT 20 14 2
OMIT 22 14 2
OMIT -21 15 2
OMIT -13 15 2
OMIT -11 15 2
OMIT -5 15 2
OMIT 1 15 2
OMIT 19 15 2
OMIT 21 15 2
OMIT 23 15 2
OMIT -20 16 2
OMIT -14 16 2
OMIT -12 16 2
OMIT -8 16 2
OMIT -4 16 2
OMIT 0 16 2
OMIT 2 16 2
OMIT 4 16 2
OMIT 14 16 2
OMIT 20 16 2
OMIT -15 17 2
OMIT -13 17 2
OMIT -11 17 2
OMIT -7 17 2
OMIT -5 17 2
OMIT -1 17 2
OMIT 1 17 2
OMIT 5 17 2
OMIT -14 18 2
OMIT -12 18 2
OMIT -8 18 2
OMIT -6 18 2
OMIT -4 18 2
OMIT -2 18 2
OMIT 0 18 2
OMIT 4 18 2
OMIT 6 18 2
OMIT -7 19 2
OMIT -5 19 2
OMIT -36 0 3
OMIT -28 0 3
OMIT -26 0 3
OMIT 28 0 3
OMIT -29 1 3
OMIT -21 1 3
OMIT 29 1 3
OMIT 35 1 3
OMIT -36 2 3
OMIT -26 2 3
OMIT 28 2 3
OMIT -29 3 3
OMIT -21 3 3
OMIT 29 3 3
OMIT 35 3 3
OMIT -36 4 3
OMIT -32 4 3
OMIT 28 4 3
OMIT -33 5 3
OMIT -29 5 3
OMIT -21 5 3
OMIT 29 5 3
OMIT 31 5 3
OMIT 35 5 3
OMIT -32 6 3
OMIT -30 6 3
OMIT -28 6 3
OMIT -26 6 3
OMIT 28 6 3
OMIT -33 7 3
OMIT -29 7 3
OMIT -21 7 3
OMIT -13 7 3
OMIT 29 7 3
OMIT 31 7 3
OMIT -34 8 3
OMIT -32 8 3
OMIT -30 8 3
OMIT -28 8 3
OMIT -12 8 3
OMIT 12 8 3
OMIT 28 8 3
OMIT 32 8 3
OMIT -33 9 3
OMIT -31 9 3
OMIT -29 9 3
OMIT -19 9 3
OMIT 7 9 3
OMIT 21 9 3
OMIT 29 9 3
OMIT 31 9 3
OMIT -30 10 3
OMIT -26 10 3
OMIT -12 10 3
OMIT 12 10 3
OMIT 28 10 3
OMIT -29 11 3
OMIT -27 11 3
OMIT -25 11 3
OMIT -21 11 3
OMIT -19 11 3
OMIT 7 11 3
OMIT 21 11 3
OMIT 29 11 3
OMIT -28 12 3
OMIT -26 12 3
OMIT -12 12 3
OMIT 12 12 3
OMIT 24 12 3
OMIT 26 12 3
OMIT 28 12 3
OMIT -27 13 3
OMIT -25 13 3
OMIT -21 13 3
OMIT -19 13 3
OMIT 1 13 3
OMIT 7 13 3
OMIT 21 13 3
OMIT 23 13 3
OMIT 27 13 3
OMIT -18 14 3
OMIT -12 14 3
OMIT 6 14 3
OMIT 24 14 3
OMIT -21 15 3
OMIT -19 15 3
OMIT 1 15 3
OMIT 7 15 3
OMIT 21 15 3
OMIT -20 16 3
OMIT -18 16 3
OMIT -16 16 3
OMIT -14 16 3
OMIT 6 16 3
OMIT 12 16 3
OMIT -13 17 3
OMIT -5 17 3
OMIT 1 17 3
OMIT 7 17 3
OMIT 13 17 3
OMIT 15 17 3
OMIT 17 17 3
OMIT -12 18 3
OMIT -10 18 3
OMIT 2 18 3
OMIT 6 18 3
OMIT 8 18 3
OMIT 10 18 3
OMIT 12 18 3
OMIT -7 19 3
OMIT -5 19 3
OMIT -34 0 4
OMIT 30 0 4
OMIT -23 1 4
OMIT 29 1 4
OMIT 33 1 4
OMIT 30 2 4
OMIT -23 3 4
OMIT 29 3 4
OMIT 33 3 4
OMIT 35 3 4
OMIT -36 4 4
OMIT -32 4 4
OMIT -12 4 4
OMIT 30 4 4
OMIT -35 5 4
OMIT -23 5 4
OMIT -21 5 4
OMIT 29 5 4
OMIT 33 5 4
OMIT -34 6 4
OMIT -24 6 4
OMIT 30 6 4
OMIT -31 7 4
OMIT -23 7 4
OMIT -21 7 4
OMIT -17 7 4
OMIT 3 7 4
OMIT 29 7 4
OMIT 31 7 4
OMIT 33 7 4
OMIT -32 8 4
OMIT -24 8 4
OMIT 30 8 4
OMIT 32 8 4
OMIT -31 9 4
OMIT -23 9 4
OMIT -21 9 4
OMIT -17 9 4
OMIT -15 9 4
OMIT -3 9 4
OMIT 3 9 4
OMIT 27 9 4
OMIT 29 9 4
OMIT 31 9 4
OMIT -30 10 4
OMIT -28 10 4
OMIT -24 10 4
OMIT -12 10 4
OMIT 30 10 4
OMIT -29 11 4
OMIT -23 11 4
OMIT -21 11 4
OMIT -17 11 4
OMIT -15 11 4
OMIT 3 11 4
OMIT 27 11 4
OMIT 29 11 4
OMIT -28 12 4
OMIT -24 12 4
OMIT -18 12 4
OMIT -12 12 4
OMIT 14 12 4
OMIT -23 13 4
OMIT -21 13 4
OMIT -19 13 4
OMIT -17 13 4
OMIT -15 13 4
OMIT -3 13 4
OMIT 3 13 4
OMIT 11 13 4
OMIT -24 14 4
OMIT -22 14 4
OMIT -20 14 4
OMIT -18 14 4
OMIT 2 14 4
OMIT 14 14 4
OMIT 16 14 4
OMIT 24 14 4
OMIT -23 15 4
OMIT -19 15 4
OMIT -17 15 4
OMIT -15 15 4
OMIT -3 15 4
OMIT 3 15 4
OMIT 11 15 4
OMIT 21 15 4
OMIT -20 16 4
OMIT -18 16 4
OMIT -12 16 4
OMIT 2 16 4
OMIT 4 16 4
OMIT 12 16 4
OMIT 14 16 4
OMIT 16 16 4
OMIT 18 16 4
OMIT -17 17 4
OMIT -15 17 4
OMIT -13 17 4
OMIT -11 17 4
OMIT -3 17 4
OMIT 3 17 4
OMIT 9 17 4
OMIT 11 17 4
OMIT -12 18 4
OMIT -10 18 4
OMIT -4 18 4
OMIT -2 18 4
OMIT 2 18 4
OMIT 4 18 4
OMIT 10 18 4
OMIT -3 19 4
OMIT -1 19 4
OMIT 1 19 4
OMIT -35 1 5
OMIT -35 3 5
OMIT 34 4 5
OMIT -35 5 5
OMIT 31 5 5
OMIT -17 7 5
OMIT -5 7 5
OMIT 31 7 5
OMIT 30 8 5
OMIT -17 9 5
OMIT -5 9 5
OMIT 23 9 5
OMIT 10 10 5
OMIT 28 10 5
OMIT -19 11 5
OMIT -17 11 5
OMIT -5 11 5
OMIT 11 11 5
OMIT 23 11 5
OMIT 10 12 5
OMIT -23 13 5
OMIT -19 13 5
OMIT -5 13 5
OMIT 11 13 5
OMIT 15 13 5
OMIT 17 13 5
OMIT 21 13 5
OMIT 23 13 5
OMIT 25 13 5
OMIT -24 14 5
OMIT -16 14 5
OMIT -12 14 5
OMIT 10 14 5
OMIT 20 14 5
OMIT 22 14 5
OMIT -19 15 5
OMIT -17 15 5
OMIT -15 15 5
OMIT -5 15 5
OMIT -3 15 5
OMIT 5 15 5
OMIT 11 15 5
OMIT 13 15 5
OMIT 15 15 5
OMIT 17 15 5
OMIT 19 15 5
OMIT 21 15 5
OMIT -18 16 5
OMIT -16 16 5
OMIT -14 16 5
OMIT -12 16 5
OMIT -10 16 5
OMIT 10 16 5
OMIT 16 16 5
OMIT -15 17 5
OMIT -13 17 5
OMIT -5 17 5
OMIT -3 17 5
OMIT 5 17 5
OMIT 7 17 5
OMIT 9 17 5
OMIT 11 17 5
OMIT 13 17 5
OMIT 15 17 5
OMIT -10 18 5
OMIT -8 18 5
OMIT -4 18 5
OMIT -2 18 5
OMIT 8 18 5
OMIT -24 0 6
OMIT 26 0 6
OMIT -35 1 6
OMIT -25 1 6
OMIT 27 1 6
OMIT -36 2 6
OMIT -24 2 6
OMIT 26 2 6
OMIT -35 3 6
OMIT -25 3 6
OMIT -9 3 6
OMIT 5 3 6
OMIT 27 3 6
OMIT -24 4 6
OMIT 26 4 6
OMIT -35 5 6
OMIT -9 5 6
OMIT 15 5 6
OMIT 27 5 6
OMIT 33 5 6
OMIT -24 6 6
OMIT 26 6 6
OMIT -29 7 6
OMIT -9 7 6
OMIT 9 7 6
OMIT 13 7 6
OMIT 15 7 6
OMIT 27 7 6
OMIT -28 8 6
OMIT 26 8 6
OMIT 28 8 6
OMIT -29 9 6
OMIT -27 9 6
OMIT -9 9 6
OMIT 9 9 6
OMIT 13 9 6
OMIT 15 9 6
OMIT 27 9 6
OMIT -28 10 6
OMIT -26 10 6
OMIT -24 10 6
OMIT -20 10 6
OMIT 26 10 6
OMIT 28 10 6
OMIT -29 11 6
OMIT -27 11 6
OMIT -25 11 6
OMIT 13 11 6
OMIT 15 11 6
OMIT 23 11 6
OMIT 25 11 6
OMIT 27 11 6
OMIT -28 12 6
OMIT -26 12 6
OMIT -24 12 6
OMIT -22 12 6
OMIT -20 12 6
OMIT -2 12 6
OMIT 24 12 6
OMIT -25 13 6
OMIT -9 13 6
OMIT 13 13 6
OMIT 15 13 6
OMIT 23 13 6
OMIT -24 14 6
OMIT -22 14 6
OMIT -20 14 6
OMIT -12 14 6
OMIT -2 14 6
OMIT 4 14 6
OMIT 20 14 6
OMIT -9 15 6
OMIT 9 15 6
OMIT 13 15 6
OMIT 15 15 6
OMIT 19 15 6
OMIT -18 16 6
OMIT -16 16 6
OMIT -14 16 6
OMIT -12 16 6
OMIT -8 16 6
OMIT -2 16 6
OMIT 0 16 6
OMIT 6 16 6
OMIT -13 17 6
OMIT -11 17 6
OMIT -9 17 6
OMIT -7 17 6
OMIT -5 17 6
OMIT 5 17 6
OMIT 7 17 6
OMIT 9 17 6
OMIT 11 17 6
OMIT 13 17 6
OMIT -8 18 6
OMIT -6 18 6
OMIT -4 18 6
OMIT -2 18 6
OMIT 0 18 6
OMIT 2 18 6
OMIT 4 18 6
OMIT 6 18 6
OMIT -34 0 7
OMIT -30 0 7
OMIT -26 0 7
OMIT 30 0 7
OMIT -35 1 7
OMIT -33 1 7
OMIT -31 1 7
OMIT -3 1 7
OMIT 5 1 7
OMIT 17 1 7
OMIT 23 1 7
OMIT 31 1 7
OMIT -30 2 7
OMIT 30 2 7
OMIT 32 2 7
OMIT -35 3 7
OMIT -33 3 7
OMIT -31 3 7
OMIT 3 3 7
OMIT 5 3 7
OMIT 17 3 7
OMIT 23 3 7
OMIT 31 3 7
OMIT -34 4 7
OMIT -30 4 7
OMIT -26 4 7
OMIT -18 4 7
OMIT 30 4 7
OMIT 32 4 7
OMIT -33 5 7
OMIT 5 5 7
OMIT 17 5 7
OMIT 23 5 7
OMIT 31 5 7
OMIT -32 6 7
OMIT -30 6 7
OMIT -28 6 7
OMIT -26 6 7
OMIT -18 6 7
OMIT 6 6 7
OMIT 22 6 7
OMIT 24 6 7
OMIT 30 6 7
OMIT -33 7 7
OMIT -31 7 7
OMIT -3 7 7
OMIT 5 7 7
OMIT 17 7 7
OMIT 23 7 7
OMIT -32 8 7
OMIT -28 8 7
OMIT -26 8 7
OMIT 22 8 7
OMIT 24 8 7
OMIT 30 8 7
OMIT -31 9 7
OMIT -29 9 7
OMIT -25 9 7
OMIT -3 9 7
OMIT 5 9 7
OMIT 17 9 7
OMIT 23 9 7
OMIT 25 9 7
OMIT 29 9 7
OMIT -30 10 7
OMIT -28 10 7
OMIT -26 10 7
OMIT 6 10 7
OMIT 22 10 7
OMIT 24 10 7
OMIT -27 11 7
OMIT -25 11 7
OMIT -3 11 7
OMIT 5 11 7
OMIT 17 11 7
OMIT 19 11 7
OMIT 23 11 7
OMIT 25 11 7
OMIT -26 12 7
OMIT 2 12 7
OMIT 6 12 7
OMIT 20 12 7
OMIT 22 12 7
OMIT 24 12 7
OMIT -25 13 7
OMIT -21 13 7
OMIT -5 13 7
OMIT -3 13 7
OMIT 1 13 7
OMIT 5 13 7
OMIT 17 13 7
OMIT 19 13 7
OMIT 21 13 7
OMIT -14 14 7
OMIT 2 14 7
OMIT 6 14 7
OMIT 12 14 7
OMIT 18 14 7
OMIT 20 14 7
OMIT -13 15 7
OMIT -3 15 7
OMIT 1 15 7
OMIT 3 15 7
OMIT 5 15 7
OMIT 15 15 7
OMIT 17 15 7
OMIT -14 16 7
OMIT -8 16 7
OMIT -6 16 7
OMIT -2 16 7
OMIT 2 16 7
OMIT 6 16 7
OMIT 10 16 7
OMIT 12 16 7
OMIT -13 17 7
OMIT -11 17 7
OMIT -5 17 7
OMIT -3 17 7
OMIT -1 17 7
OMIT 1 17 7
OMIT 3 17 7
OMIT 5 17 7
OMIT -6 18 7
OMIT -4 18 7
OMIT -2 18 7
OMIT 0 18 7
OMIT 2 18 7
OMIT 4 18 7
OMIT -32 0 8
OMIT 20 0 8
OMIT 22 0 8
OMIT 30 0 8
OMIT -27 1 8
OMIT -32 2 8
OMIT -26 2 8
OMIT -12 2 8
OMIT 20 2 8
OMIT 22 2 8
OMIT 30 2 8
OMIT -27 3 8
OMIT -32 4 8
OMIT -12 4 8
OMIT 22 4 8
OMIT 30 4 8
OMIT -27 5 8
OMIT -25 5 8
OMIT 17 5 8
OMIT -32 6 8
OMIT -30 6 8
OMIT -26 6 8
OMIT -12 6 8
OMIT 22 6 8
OMIT 28 6 8
OMIT 30 6 8
OMIT -31 7 8
OMIT -27 7 8
OMIT -25 7 8
OMIT 17 7 8
OMIT 29 7 8
OMIT -30 8 8
OMIT -28 8 8
OMIT -26 8 8
OMIT 2 8 8
OMIT 20 8 8
OMIT 22 8 8
OMIT 28 8 8
OMIT -29 9 8
OMIT 17 9 8
OMIT 25 9 8
OMIT -28 10 8
OMIT -26 10 8
OMIT 2 10 8
OMIT 20 10 8
OMIT 22 10 8
OMIT -27 11 8
OMIT -25 11 8
OMIT -15 11 8
OMIT 17 11 8
OMIT 23 11 8
OMIT 25 11 8
OMIT -26 12 8
OMIT 20 12 8
OMIT 22 12 8
OMIT -15 13 8
OMIT -3 13 8
OMIT 17 13 8
OMIT 19 13 8
OMIT -22 14 8
OMIT -20 14 8
OMIT -18 14 8
OMIT -12 14 8
OMIT 2 14 8
OMIT 14 14 8
OMIT 18 14 8
OMIT -19 15 8
OMIT -15 15 8
OMIT -13 15 8
OMIT -3 15 8
OMIT -1 15 8
OMIT 3 15 8
OMIT 13 15 8
OMIT 15 15 8
OMIT -16 16 8
OMIT -12 16 8
OMIT -10 16 8
OMIT -4 16 8
OMIT 2 16 8
OMIT 4 16 8
OMIT 12 16 8
OMIT -11 17 8
OMIT -9 17 8
OMIT -5 17 8
OMIT -3 17 8
OMIT -1 17 8
OMIT 1 17 8
OMIT 3 17 8
OMIT 5 17 8
OMIT 7 17 8
OMIT 14 0 9
OMIT 18 0 9
OMIT -31 1 9
OMIT -27 1 9
OMIT -25 1 9
OMIT 14 2 9
OMIT 18 2 9
OMIT 28 2 9
OMIT -33 3 9
OMIT -31 3 9
OMIT -29 3 9
OMIT -27 3 9
OMIT -25 3 9
OMIT -23 3 9
OMIT 5 3 9
OMIT 27 3 9
OMIT -30 4 9
OMIT 14 4 9
OMIT 16 4 9
OMIT 18 4 9
OMIT 28 4 9
OMIT -31 5 9
OMIT -29 5 9
OMIT -27 5 9
OMIT -25 5 9
OMIT -23 5 9
OMIT 5 5 9
OMIT 27 5 9
OMIT -30 6 9
OMIT 0 6 9
OMIT 14 6 9
OMIT 16 6 9
OMIT 28 6 9
OMIT -31 7 9
OMIT -29 7 9
OMIT -27 7 9
OMIT -25 7 9
OMIT -23 7 9
OMIT 27 7 9
OMIT -30 8 9
OMIT 0 8 9
OMIT 14 8 9
OMIT 16 8 9
OMIT -27 9 9
OMIT -25 9 9
OMIT -23 9 9
OMIT 11 9 9
OMIT 15 9 9
OMIT -28 10 9
OMIT 0 10 9
OMIT 6 10 9
OMIT 14 10 9
OMIT 16 10 9
OMIT -25 11 9
OMIT -23 11 9
OMIT -21 11 9
OMIT 5 11 9
OMIT 7 11 9
OMIT 11 11 9
OMIT 15 11 9
OMIT -20 12 9
OMIT 0 12 9
OMIT 6 12 9
OMIT 10 12 9
OMIT 14 12 9
OMIT 16 12 9
OMIT 18 12 9
OMIT -23 13 9
OMIT -21 13 9
OMIT -17 13 9
OMIT 3 13 9
OMIT 5 13 9
OMIT 7 13 9
OMIT 11 13 9
OMIT 13 13 9
OMIT 15 13 9
OMIT -20 14 9
OMIT -18 14 9
OMIT -4 14 9
OMIT 0 14 9
OMIT 6 14 9
OMIT 8 14 9
OMIT 10 14 9
OMIT 14 14 9
OMIT 16 14 9
OMIT -17 15 9
OMIT -11 15 9
OMIT 3 15 9
OMIT 5 15 9
OMIT 7 15 9
OMIT 9 15 9
OMIT 11 15 9
OMIT 13 15 9
OMIT -10 16 9
OMIT -4 16 9
OMIT 0 16 9
OMIT 4 16 9
OMIT 6 16 9
OMIT 8 16 9
OMIT 10 16 9
OMIT -7 17 9
OMIT 1 17 9
OMIT 3 17 9
OMIT -32 0 10
OMIT -30 0 10
OMIT 28 0 10
OMIT -11 1 10
OMIT -32 2 10
OMIT -30 2 10
OMIT 28 2 10
OMIT -11 3 10
OMIT 29 3 10
OMIT -32 4 10
OMIT -30 4 10
OMIT 28 4 10
OMIT -11 5 10
OMIT -3 5 10
OMIT -30 6 10
OMIT -16 6 10
OMIT 28 6 10
OMIT -29 7 10
OMIT -11 7 10
OMIT -3 7 10
OMIT 3 7 10
OMIT -16 8 10
OMIT -11 9 10
OMIT -3 9 10
OMIT 3 9 10
OMIT 17 9 10
OMIT 21 9 10
OMIT 23 9 10
OMIT -20 10 10
OMIT -16 10 10
OMIT 4 10 10
OMIT -25 11 10
OMIT -19 11 10
OMIT -11 11 10
OMIT -3 11 10
OMIT 17 11 10
OMIT 19 11 10
OMIT 21 11 10
OMIT -20 12 10
OMIT -16 12 10
OMIT 4 12 10
OMIT 20 12 10
OMIT -21 13 10
OMIT -19 13 10
OMIT -11 13 10
OMIT -3 13 10
OMIT 1 13 10
OMIT 13 13 10
OMIT 17 13 10
OMIT -18 14 10
OMIT -16 14 10
OMIT -14 14 10
OMIT -12 14 10
OMIT 4 14 10
OMIT 10 14 10
OMIT 12 14 10
OMIT 14 14 10
OMIT -15 15 10
OMIT -13 15 10
OMIT -11 15 10
OMIT -5 15 10
OMIT -3 15 10
OMIT -1 15 10
OMIT 1 15 10
OMIT 3 15 10
OMIT -10 16 10
OMIT 0 16 10
OMIT 4 16 10
OMIT -24 0 11
OMIT 20 0 11
OMIT 23 1 11
OMIT 27 1 11
OMIT -30 2 11
OMIT -24 2 11
OMIT -22 2 11
OMIT 23 3 11
OMIT 27 3 11
OMIT -30 4 11
OMIT -24 4 11
OMIT 18 4 11
OMIT 20 4 11
OMIT 23 5 11
OMIT 27 5 11
OMIT -24 6 11
OMIT -22 6 11
OMIT 18 6 11
OMIT 20 6 11
OMIT -21 7 11
OMIT 23 7 11
OMIT 25 7 11
OMIT -24 8 11
OMIT -22 8 11
OMIT 18 8 11
OMIT 20 8 11
OMIT 22 8 11
OMIT -25 9 11
OMIT -21 9 11
OMIT 23 9 11
OMIT -24 10 11
OMIT -22 10 11
OMIT -20 10 11
OMIT -18 10 11
OMIT 8 10 11
OMIT 18 10 11
OMIT 20 10 11
OMIT 22 10 11
OMIT -21 11 11
OMIT -15 11 11
OMIT -9 11 11
OMIT -20 12 11
OMIT -18 12 11
OMIT -12 12 11
OMIT 8 12 11
OMIT 18 12 11
OMIT -15 13 11
OMIT -13 13 11
OMIT -9 13 11
OMIT 11 13 11
OMIT 13 13 11
OMIT -12 14 11
OMIT -10 14 11
OMIT -6 14 11
OMIT -2 14 11
OMIT 8 14 11
OMIT 10 14 11
OMIT 12 14 11
OMIT -11 15 11
OMIT -9 15 11
OMIT -1 15 11
OMIT 9 15 11
OMIT -22 0 12
OMIT -12 0 12
OMIT 26 0 12
OMIT -29 1 12
OMIT -27 1 12
OMIT -5 1 12
OMIT 11 1 12
OMIT 21 1 12
OMIT -22 2 12
OMIT -12 2 12
OMIT -29 3 12
OMIT -27 3 12
OMIT -5 3 12
OMIT 11 3 12
OMIT 21 3 12
OMIT 25 3 12
OMIT -22 4 12
OMIT -12 4 12
OMIT -29 5 12
OMIT -27 5 12
OMIT -5 5 12
OMIT 11 5 12
OMIT 19 5 12
OMIT 21 5 12
OMIT 25 5 12
OMIT -28 6 12
OMIT -22 6 12
OMIT -12 6 12
OMIT -27 7 12
OMIT -25 7 12
OMIT 11 7 12
OMIT 19 7 12
OMIT 21 7 12
OMIT -22 8 12
OMIT 18 8 12
OMIT 20 8 12
OMIT 22 8 12
OMIT -25 9 12
OMIT 1 9 12
OMIT 11 9 12
OMIT 19 9 12
OMIT 21 9 12
OMIT -22 10 12
OMIT -12 10 12
OMIT 4 10 12
OMIT 18 10 12
OMIT 20 10 12
OMIT -13 11 12
OMIT -7 11 12
OMIT -5 11 12
OMIT 1 11 12
OMIT 11 11 12
OMIT -12 12 12
OMIT -10 12 12
OMIT -8 12 12
OMIT 4 12 12
OMIT 16 12 12
OMIT -13 13 12
OMIT -5 13 12
OMIT -3 13 12
OMIT -1 13 12
OMIT 1 13 12
OMIT 3 13 12
OMIT 7 13 12
OMIT 11 13 12
OMIT 13 13 12
OMIT -12 14 12
OMIT -10 14 12
OMIT -8 14 12
OMIT -6 14 12
OMIT -4 14 12
OMIT -2 14 12
OMIT 4 14 12
OMIT 6 14 12
OMIT 8 14 12
OMIT -5 15 12
OMIT -3 15 12
OMIT -1 15 12
OMIT 1 15 12
OMIT 3 15 12
OMIT -28 0 13
OMIT -24 0 13
OMIT -2 0 13
OMIT 18 0 13
OMIT 20 0 13
OMIT 22 0 13
OMIT 24 0 13
OMIT -15 1 13
OMIT 11 1 13
OMIT 23 1 13
OMIT -28 2 13
OMIT -26 2 13
OMIT -24 2 13
OMIT -2 2 13
OMIT 18 2 13
OMIT 20 2 13
OMIT 22 2 13
OMIT 24 2 13
OMIT -15 3 13
OMIT 11 3 13
OMIT 23 3 13
OMIT -28 4 13
OMIT -26 4 13
OMIT -24 4 13
OMIT -2 4 13
OMIT 18 4 13
OMIT 20 4 13
OMIT 22 4 13
OMIT -15 5 13
OMIT -13 5 13
OMIT -11 5 13
OMIT 11 5 13
OMIT 23 5 13
OMIT -24 6 13
OMIT -2 6 13
OMIT 18 6 13
OMIT 20 6 13
OMIT 22 6 13
OMIT -15 7 13
OMIT -13 7 13
OMIT 11 7 13
OMIT 21 7 13
OMIT -24 8 13
OMIT -2 8 13
OMIT 18 8 13
OMIT 20 8 13
OMIT -15 9 13
OMIT -13 9 13
OMIT -11 9 13
OMIT -7 9 13
OMIT 11 9 13
OMIT -2 10 13
OMIT 16 10 13
OMIT -15 11 13
OMIT -11 11 13
OMIT -7 11 13
OMIT 5 11 13
OMIT 7 11 13
OMIT 11 11 13
OMIT 13 11 13
OMIT -14 12 13
OMIT -2 12 13
OMIT 0 12 13
OMIT 2 12 13
OMIT -13 13 13
OMIT -11 13 13
OMIT -9 13 13
OMIT -7 13 13
OMIT -3 13 13
OMIT 1 13 13
OMIT 3 13 13
OMIT 5 13 13
OMIT 7 13 13
OMIT 9 13 13
OMIT -4 14 13
OMIT -2 14 13
OMIT 0 14 13
OMIT 2 14 13
OMIT 4 14 13
OMIT -26 0 14
OMIT -22 0 14
OMIT -20 0 14
OMIT -4 0 14
OMIT 18 0 14
OMIT 22 0 14
OMIT -27 1 14
OMIT -21 1 14
OMIT -19 1 14
OMIT -17 1 14
OMIT -15 1 14
OMIT 7 1 14
OMIT 17 1 14
OMIT 19 1 14
OMIT 21 1 14
OMIT -26 2 14
OMIT -20 2 14
OMIT -4 2 14
OMIT 18 2 14
OMIT 22 2 14
OMIT -21 3 14
OMIT -19 3 14
OMIT -17 3 14
OMIT -15 3 14
OMIT 7 3 14
OMIT 19 3 14
OMIT -26 4 14
OMIT -22 4 14
OMIT -20 4 14
OMIT -18 4 14
OMIT 18 4 14
OMIT 22 4 14
OMIT -21 5 14
OMIT -19 5 14
OMIT -17 5 14
OMIT 7 5 14
OMIT 15 5 14
OMIT 17 5 14
OMIT 19 5 14
OMIT 21 5 14
OMIT -22 6 14
OMIT -18 6 14
OMIT 4 6 14
OMIT 18 6 14
OMIT -21 7 14
OMIT -19 7 14
OMIT -17 7 14
OMIT -15 7 14
OMIT 3 7 14
OMIT 7 7 14
OMIT 15 7 14
OMIT 17 7 14
OMIT 19 7 14
OMIT -22 8 14
OMIT -18 8 14
OMIT -14 8 14
OMIT -4 8 14
OMIT 4 8 14
OMIT 18 8 14
OMIT -19 9 14
OMIT -15 9 14
OMIT 3 9 14
OMIT 5 9 14
OMIT 7 9 14
OMIT 13 9 14
OMIT 15 9 14
OMIT -18 10 14
OMIT -16 10 14
OMIT -14 10 14
OMIT -12 10 14
OMIT -4 10 14
OMIT 2 10 14
OMIT 4 10 14
OMIT 14 10 14
OMIT -15 11 14
OMIT 3 11 14
OMIT 5 11 14
OMIT 7 11 14
OMIT 9 11 14
OMIT 11 11 14
OMIT -12 12 14
OMIT -4 12 14
OMIT 2 12 14
OMIT 4 12 14
OMIT -3 13 14
OMIT 3 13 14
OMIT -16 0 15
OMIT 6 0 15
OMIT 8 0 15
OMIT 12 0 15
OMIT 16 0 15
OMIT -25 1 15
OMIT -23 1 15
OMIT -21 1 15
OMIT -17 1 15
OMIT -11 1 15
OMIT 7 1 15
OMIT 17 1 15
OMIT -16 2 15
OMIT 6 2 15
OMIT 12 2 15
OMIT -23 3 15
OMIT -21 3 15
OMIT -17 3 15
OMIT -11 3 15
OMIT 7 3 15
OMIT 17 3 15
OMIT -16 4 15
OMIT 6 4 15
OMIT 12 4 15
OMIT 16 4 15
OMIT -23 5 15
OMIT -21 5 15
OMIT -17 5 15
OMIT -11 5 15
OMIT 7 5 15
OMIT 17 5 15
OMIT -16 6 15
OMIT 6 6 15
OMIT 8 6 15
OMIT 10 6 15
OMIT 12 6 15
OMIT 16 6 15
OMIT -21 7 15
OMIT -17 7 15
OMIT -11 7 15
OMIT 7 7 15
OMIT -16 8 15
OMIT 6 8 15
OMIT 8 8 15
OMIT 10 8 15
OMIT 12 8 15
OMIT 14 8 15
OMIT -17 9 15
OMIT -11 9 15
OMIT -5 9 15
OMIT 7 9 15
OMIT 13 9 15
OMIT 4 10 15
OMIT 6 10 15
OMIT 8 10 15
OMIT 10 10 15
OMIT -11 11 15
OMIT -5 11 15
OMIT -1 11 15
OMIT 7 11 15
OMIT -18 0 16
OMIT -6 0 16
OMIT 12 0 16
OMIT 16 0 16
OMIT 16 2 16
OMIT -15 3 16
OMIT 17 3 16
OMIT -16 4 16
OMIT 16 4 16
OMIT -19 5 16
OMIT -15 5 16
OMIT 15 5 16
OMIT -18 6 16
OMIT -6 6 16
OMIT 12 6 16
OMIT -15 7 16
OMIT 5 7 16
OMIT -14 8 16
OMIT -6 8 16
OMIT -13 9 16
OMIT -11 9 16
OMIT -9 9 16
OMIT 5 9 16
OMIT -6 10 16
OMIT -14 0 17
OMIT -12 0 17
OMIT -10 0 17
OMIT -8 0 17
OMIT -6 0 17
OMIT 4 0 17
OMIT 6 0 17
OMIT 8 0 17
OMIT 10 0 17
OMIT 12 0 17
OMIT -19 1 17
OMIT -1 1 17
OMIT 7 1 17
OMIT 11 1 17
OMIT 13 1 17
OMIT -14 2 17
OMIT -12 2 17
OMIT -6 2 17
OMIT 4 2 17
OMIT 6 2 17
OMIT 8 2 17
OMIT 10 2 17
OMIT 12 2 17
OMIT -3 3 17
OMIT -1 3 17
OMIT 7 3 17
OMIT 11 3 17
OMIT 13 3 17
OMIT -14 4 17
OMIT -12 4 17
OMIT -2 4 17
OMIT 4 4 17
OMIT 6 4 17
OMIT 8 4 17
OMIT 10 4 17
OMIT 12 4 17
OMIT -3 5 17
OMIT -1 5 17
OMIT 7 5 17
OMIT 9 5 17
OMIT 11 5 17
OMIT -14 6 17
OMIT -12 6 17
OMIT -6 6 17
OMIT -2 6 17
OMIT 4 6 17
OMIT 6 6 17
OMIT 8 6 17
OMIT 10 6 17
OMIT -3 7 17
OMIT -1 7 17
OMIT 7 7 17
OMIT -10 8 17
OMIT -8 8 17
OMIT -6 8 17
OMIT -2 8 17
OMIT 4 8 17
OMIT -14 0 18
OMIT -12 0 18
OMIT -6 0 18
OMIT -2 0 18
OMIT 2 0 18
OMIT 4 0 18
OMIT 6 0 18
OMIT 8 0 18
OMIT -11 1 18
OMIT -9 1 18
OMIT -1 1 18
OMIT 3 1 18
OMIT 7 1 18
OMIT -14 2 18
OMIT -12 2 18
OMIT -6 2 18
OMIT -2 2 18
OMIT 2 2 18
OMIT 4 2 18
OMIT 6 2 18
OMIT 8 2 18
OMIT -13 3 18
OMIT -11 3 18
OMIT -9 3 18
OMIT -3 3 18
OMIT -1 3 18
OMIT 3 3 18
OMIT 7 3 18
OMIT -12 4 18
OMIT -6 4 18
OMIT -2 4 18
OMIT 2 4 18
OMIT 4 4 18
OMIT 6 4 18
OMIT -9 5 18
OMIT -5 5 18
OMIT -3 5 18
OMIT -1 5 18
OMIT 1 5 18
OMIT 3 5 18
OMIT 5 5 18
OMIT -6 6 18
OMIT -4 6 18
OMIT -2 6 18
OMIT 2 6 18
OMIT -4 2 19
WGHT 0.009637 0
FVAR 0.9972
REM <olex2.extras>
REM <HklSrc "%.\\2-methyl.hkl">
REM </olex2.extras>

O(1)  3     0.30492  0.00000  1.06770  10.50000  0.01552  0.02557  0.00779 =
 0.00000  0.00172  0.00000 
O(2)  3     0.17896  0.00000  0.36820  10.50000  0.01199  0.01725  0.00937 =
 0.00000  0.00006  0.00000 
C(1)  1     0.30241  0.00000  0.87586  10.50000  0.01107  0.01424  0.00764 =
 0.00000  0.00152  0.00000 
C(2)  1     0.21026  0.00000  0.73479  10.50000  0.00944  0.01230  0.00852 =
 0.00000  0.00216  0.00000 
C(3)  1     0.24337  0.00000  0.53740  10.50000  0.00966  0.01116  0.00801 =
 0.00000  0.00145  0.00000 
C(4)  1     0.36151  0.00000  0.52861  10.50000  0.00998  0.01408  0.00899 =
 0.00000  0.00233  0.00000 
C(5)  1     0.40138  0.00000  0.75691  10.50000  0.00988  0.02361  0.00980 =
 0.00000  0.00087  0.00000 
C(6)  1     0.10007  0.00000  0.80249  10.50000  0.01066  0.01802  0.01417 =
 0.00000  0.00407  0.00000 
H(2)  2     0.22060  0.00000  0.25405  10.50000  0.02874 
H(4)  2     0.38527  0.13200  0.44836  11.00000  0.02561 
H(5)  2     0.44797  0.12899  0.80045  11.00000  0.03356 
H(6a  2     0.04410  0.00000  0.66427  10.50000  0.03264 
H(6b  2     0.08419  0.12846  0.88998  11.00000  0.03209 
HKLF 4

END
Q1 1 0.155556 0 0.333333 11 0.05 0.63
Q2 1 0.288889 0 1.044444 11 0.05 0.6
Q3 1 0.266667 0 0.844444 11 0.05 0.44
Q4 1 0.222222 0 0.466667 11 0.05 0.41
Q5 1 0.111111 0 0.866667 11 0.05 0.4
Q6 1 0.433333 0 0.8 11 0.05 0.37
Q7 1 0.377778 0 0.6 11 0.05 0.32
Q8 1 0.266667 0 0.666667 11 0.05 0.27
Q9 1 0.188889 0 0.711111 11 0.05 0.2
Q10 1 0.077778 0 0.666667 11 0.05 0.17
Q11 1 0.4 0 1.088889 11 0.05 0.15
Q12 1 -0.077778 0 0.622222 11 0.05 0.14
Q13 1 0.544444 0 0.733333 11 0.05 0.13
Q14 1 0.433333 0.177778 0.777778 11 0.05 0.13
Q15 1 0.366667 0 0.4 11 0.05 0.12
Q16 1 -0.077778 0 0.8 11 0.05 0.11
Q17 1 0.077778 0 1.022222 11 0.05 0.1
Q18 1 0 0 0.5 11 0.05 0.08
Q19 1 0.066667 0.155556 0.777778 11 0.05 0.08
Q20 1 0.2 0 0.111111 11 0.05 0.08

  REM The information below was added by Olex2.
  REM
  REM R1 = 0.0250 for 5211 Fo > 4sig(Fo) and 0.0250 for all 5211 data
  REM 67 parameters refined using 0 restraints
  REM Highest difference peak 0.6320, deepest hole -0.2556
  REM Mean Shift 0.0000, Max Shift 0.0002.

  REM +++ Tabular Listing of Refinement Information +++
  REM R1_all = 0.0250
  REM R1_gt = 0.0250
  REM wR_ref = 0.0649
  REM GOOF = 1.2633
  REM Shift_max = 0.0002
  REM Shift_mean = 0.0000
  REM Reflections_all = 5211
  REM Reflections_gt = 5211
  REM Parameters = 67
  REM Hole = -0.2556
  REM Peak = 0.6320
  REM Flack = n/a

  
;
_cod_data_source_file            4_TAAM_iso_max.cif
_cod_data_source_block           4_TAAM_iso_max
_cod_original_cell_volume        506.15(30)
_cod_database_code               2022053
_olex2_refinement_description
;
;
_iucr_refine_fcf_details
;
data_2-methyl
_computing_structure_refinement   'olex2.refine (Bourhis et al., 2015)'
_shelx_refln_list_code            4
loop_
  _space_group_symop_id
  _space_group_symop_operation_xyz
  1  x,y,z
  2  -x,y,-z
  3  -x,-y,-z
  4  x,-y,z
  5  x+1/2,y+1/2,z
  6  -x+1/2,y+1/2,-z
  7  -x+1/2,-y+1/2,-z
  8  x+1/2,-y+1/2,z

_space_group_crystal_system       monoclinic
_space_group_IT_number            12
_space_group_name_H-M_alt         'C 1 2/m 1'
_space_group_name_Hall            '-C 2y'
_symmetry_space_group_name_H-M    'C 1 2/m 1'
_symmetry_space_group_name_Hall   '-C 2y'
_symmetry_Int_Tables_number       12
_cell_length_a                    12.402
_cell_length_b                    6.47
_cell_length_c                    6.321
_cell_angle_alpha                 90
_cell_angle_beta                  93.69
_cell_angle_gamma                 90
_cell_volume                      506.151482
loop_
  _refln_index_h
  _refln_index_k
  _refln_index_l
  _refln_F_squared_calc
  _refln_F_squared_meas
  _refln_F_squared_sigma
  _refln_F_squared_weight
  _refln_observed_status
-34 0 1 2.089 2.092 0.231 77.597 o
-34 0 3 0.932 0.674 0.191 114.362 o
-34 0 5 0.997 0.815 0.191 114.315 o
-34 2 1 1.957 1.971 0.161 159.362 o
-34 2 3 0.864 0.774 0.141 210.334 o
-34 2 4 0.555 0.422 0.151 183.626 o
-34 4 1 1.610 1.579 0.161 160.092 o
-33 1 1 6.398 6.607 0.312 41.384 o
-33 1 2 1.283 0.895 0.141 209.712 o
-33 1 4 1.994 1.619 0.141 207.622 o
-33 1 5 2.428 2.373 0.181 125.587 o
-33 1 6 4.353 4.545 0.261 59.603 o
-33 3 1 5.460 5.400 0.251 63.418 o
-33 3 2 1.092 0.804 0.141 210.043 o
-33 3 4 1.715 1.378 0.161 160.087 o
-33 3 5 2.040 1.951 0.171 141.298 o
-33 3 6 3.677 4.043 0.241 70.190 o
-33 5 1 3.983 3.972 0.241 70.037 o
-33 5 2 0.796 0.634 0.161 161.243 o
-33 5 4 1.277 1.116 0.151 182.705 o
-32 0 1 1.912 1.951 0.241 71.383 o
-32 0 2 1.409 0.945 0.191 114.113 o
-32 0 3 0.427 0.422 0.171 143.031 o
-32 0 5 12.020 12.218 0.875 5.369 o
-32 0 6 21.344 21.732 1.579 1.650 o
-32 0 7 1.334 0.754 0.181 127.185 o
-32 2 1 1.775 1.730 0.151 181.526 o
-32 2 2 1.270 0.744 0.141 209.841 o
-32 2 3 0.372 0.362 0.121 286.972 o
-32 2 5 11.165 11.172 0.553 13.174 o
-32 2 6 19.743 20.625 1.036 3.768 o
-32 2 7 1.198 0.724 0.141 209.956 o
-32 4 1 1.426 1.478 0.171 142.172 o
-32 4 2 0.934 0.573 0.131 243.855 o
-32 4 5 8.966 8.940 0.412 23.571 o
-32 4 6 15.656 16.331 0.825 5.946 o
-32 6 1 0.999 1.086 0.181 127.273 o
-32 6 2 0.563 0.483 0.121 286.694 o
-32 6 5 6.247 6.426 0.392 26.555 o
-31 1 1 0.654 0.483 0.141 210.668 o
-31 1 3 1.208 1.066 0.151 182.816 o
-31 1 4 0.679 0.664 0.131 244.130 o
-31 1 5 3.189 3.258 0.191 111.640 o
-31 1 6 6.910 7.039 0.322 38.712 o
-31 1 8 1.381 0.935 0.161 160.686 o
-31 3 1 0.499 0.402 0.151 183.658 o
-31 3 3 1.038 0.855 0.141 210.080 o
-31 3 4 0.567 0.483 0.121 286.690 o
-31 3 5 2.753 2.906 0.181 124.870 o
-31 3 6 5.789 5.933 0.282 50.730 o
-31 3 8 1.181 0.835 0.181 127.244 o
-31 5 3 0.770 0.664 0.131 244.017 o
-31 5 4 0.396 0.402 0.141 210.863 o
-31 5 5 2.056 2.182 0.161 159.049 o
-31 5 6 4.077 4.445 0.261 59.751 o
-31 7 3 0.490 0.352 0.141 210.825 o
-31 7 5 1.333 1.498 0.161 160.452 o
-30 0 1 0.750 1.106 0.332 37.955 o
-30 0 2 1.802 1.458 0.241 71.481 o
-30 0 3 0.400 0.513 0.181 127.584 o
-30 0 4 2.713 2.926 0.251 65.430 o
-30 0 5 1.811 2.021 0.201 102.566 o
-30 0 6 3.039 3.208 0.272 56.059 o
-30 0 8 1.687 0.945 0.221 85.119 o
-30 2 1 0.671 0.503 0.151 183.538 o
-30 2 2 1.627 1.327 0.151 182.088 o
-30 2 3 0.382 0.493 0.121 286.900 o
-30 2 4 2.421 2.595 0.171 140.373 o
-30 2 5 1.726 1.870 0.141 207.951 o
-30 2 6 2.894 2.987 0.181 124.632 o
-30 2 8 1.559 0.996 0.191 114.025 o
-30 4 1 0.482 0.412 0.151 183.664 o
-30 4 2 1.202 1.026 0.141 209.736 o
-30 4 3 0.326 0.493 0.131 244.539 o
-30 4 4 1.722 1.810 0.141 208.029 o
-30 4 5 1.494 1.659 0.141 208.673 o
-30 4 6 2.496 2.595 0.171 140.263 o
-30 4 8 1.226 0.623 0.171 142.637 o
-30 6 2 0.727 0.543 0.131 244.144 o
-30 6 4 0.978 1.066 0.141 210.021 o
-30 6 5 1.168 1.398 0.141 209.498 o
-30 6 6 1.938 2.182 0.161 159.232 o
-30 8 2 0.359 0.392 0.141 210.884 o
-30 8 4 0.439 0.583 0.141 210.785 o
-30 8 5 0.818 0.935 0.141 210.295 o
-29 1 1 6.878 6.979 0.322 38.731 o
-29 1 2 0.451 0.382 0.121 286.885 o
-29 1 4 2.695 2.705 0.171 139.878 o
-29 1 5 4.573 4.163 0.221 82.377 o
-29 1 6 0.636 0.674 0.131 244.174 o
-29 1 7 2.812 2.675 0.171 139.716 o
-29 1 8 3.005 2.735 0.201 101.421 o
-29 1 10 2.457 1.790 0.191 113.133 o
-29 3 1 5.595 5.551 0.272 54.593 o
-29 3 4 2.084 2.092 0.161 159.078 o
-29 3 5 4.060 3.781 0.191 110.159 o
-29 3 6 0.524 0.573 0.121 286.687 o
-29 3 7 2.290 2.243 0.181 125.810 o
-29 3 8 2.432 2.142 0.201 102.121 o
-29 3 10 2.009 1.337 0.181 126.511 o
-29 5 1 3.687 3.731 0.231 76.369 o
-29 5 4 1.236 1.368 0.131 242.572 o
-29 5 5 3.166 3.037 0.171 138.811 o
-29 5 6 0.353 0.493 0.131 244.520 o
-29 5 7 1.512 1.458 0.161 160.279 o
-29 5 8 1.602 1.539 0.181 126.756 o
-29 7 1 1.962 2.031 0.171 141.343 o
-29 7 4 0.548 0.794 0.141 210.628 o
-29 7 5 2.173 2.112 0.151 180.410 o
-29 7 7 0.809 0.774 0.141 210.392 o
-29 7 8 0.858 0.724 0.171 142.813 o
-29 9 1 0.839 0.784 0.151 183.317 o
-29 9 4 0.170 0.282 0.121 287.142 o
-29 9 5 1.321 1.398 0.141 209.241 o
-28 0 1 13.967 13.888 0.724 7.713 o
-28 0 2 1.566 1.257 0.181 126.884 o
-28 0 4 1.168 1.136 0.211 93.526 o
-28 0 5 1.072 1.458 0.191 114.152 o
-28 0 6 1.144 1.026 0.191 114.215 o
-28 0 7 0.671 0.714 0.181 127.484 o
-28 0 8 2.263 2.082 0.251 65.707 o
-28 0 9 3.873 3.801 0.463 19.421 o
-28 0 10 3.156 3.188 0.302 45.490 o
-28 0 11 11.956 12.601 0.885 5.249 o
-28 2 1 12.687 12.580 0.473 17.555 o
-28 2 2 1.438 1.207 0.151 182.442 o
-28 2 4 1.096 1.066 0.141 209.860 o
-28 2 5 1.040 1.478 0.141 209.638 o
-28 2 6 1.004 0.925 0.151 183.107 o
-28 2 7 0.580 0.553 0.131 244.300 o
-28 2 8 2.042 1.951 0.191 113.402 o
-28 2 9 3.544 3.429 0.241 70.425 o
-28 2 10 2.969 2.755 0.201 101.444 o
-28 2 11 11.014 11.394 0.573 12.299 o
-28 4 1 9.572 9.553 0.382 27.067 o
-28 4 2 1.105 0.975 0.161 160.911 o
-28 4 4 0.918 0.915 0.131 243.620 o
-28 4 5 0.930 1.317 0.131 243.250 o
-28 4 6 0.682 0.543 0.141 210.620 o
-28 4 7 0.372 0.422 0.131 244.531 o
-28 4 8 1.506 1.297 0.161 160.375 o
-28 4 9 2.721 2.564 0.221 84.315 o
-28 4 10 2.478 2.303 0.221 84.516 o
-28 6 1 6.042 6.044 0.272 54.240 o
-28 6 2 0.708 0.593 0.121 286.401 o
-28 6 4 0.690 0.754 0.121 286.296 o
-28 6 5 0.749 1.076 0.131 243.757 o
-28 6 6 0.354 0.392 0.121 286.975 o
-28 6 8 0.910 0.835 0.161 161.109 o
-28 6 9 1.757 1.629 0.191 113.720 o
-28 8 1 3.194 3.278 0.191 111.622 o
-28 8 2 0.387 0.442 0.151 183.698 o
-28 8 4 0.459 0.533 0.131 244.422 o
-28 8 5 0.539 0.774 0.121 286.524 o
-28 10 1 1.425 1.428 0.181 126.922 o
-28 10 5 0.342 0.593 0.131 244.492 o
-27 1 1 21.984 21.651 0.764 6.654 o
-27 1 3 2.834 2.564 0.161 157.313 o
-27 1 4 17.308 17.850 0.593 10.995 o
-27 1 5 55.844 55.038 1.669 1.361 o
-27 1 6 0.847 0.664 0.121 286.094 o
-27 1 7 2.642 2.484 0.171 140.128 o
-27 1 10 8.762 8.819 0.392 25.983 o
-27 1 11 4.432 4.465 0.251 64.311 o
-27 3 1 18.509 17.940 0.674 8.622 o
-27 3 3 2.370 2.051 0.151 180.056 o
-27 3 4 15.237 15.648 0.533 13.668 o
-27 3 5 47.436 45.494 1.609 1.498 o
-27 3 6 0.773 0.583 0.131 244.065 o
-27 3 7 2.326 2.232 0.181 125.777 o
-27 3 10 7.393 7.301 0.332 36.320 o
-27 3 11 3.705 3.811 0.231 76.331 o
-27 5 1 13.204 13.003 0.503 15.558 o
-27 5 3 1.651 1.337 0.131 241.594 o
-27 5 4 11.835 12.279 0.453 19.176 o
-27 5 5 34.443 35.187 1.197 2.709 o
-27 5 6 0.641 0.593 0.121 286.507 o
-27 5 7 1.797 1.730 0.151 181.489 o
-27 5 10 5.266 5.159 0.312 41.942 o
-27 5 11 2.609 2.967 0.201 101.662 o
-27 7 1 8.031 8.216 0.352 32.183 o
-27 7 3 0.965 0.794 0.131 243.641 o
-27 7 4 8.079 8.407 0.342 33.969 o
-27 7 5 21.461 22.405 0.794 6.195 o
-27 7 6 0.481 0.453 0.131 244.437 o
-27 7 7 1.212 1.187 0.151 182.741 o
-27 9 1 4.205 4.274 0.231 75.832 o
-27 9 3 0.478 0.453 0.121 286.818 o
-27 9 4 4.823 5.028 0.241 69.167 o
-27 9 5 11.534 11.977 0.603 11.102 o
-27 9 7 0.709 0.724 0.151 183.439 o
-27 11 1 1.930 1.951 0.161 159.417 o
-27 11 4 2.518 2.494 0.181 125.414 o
-26 0 1 11.428 11.655 0.674 8.971 o
-26 0 2 57.164 55.028 2.222 0.799 o
-26 0 4 28.633 29.042 1.287 2.412 o
-26 0 5 25.256 26.126 1.197 2.802 o
-26 0 6 0.748 0.895 0.231 78.099 o
-26 0 9 8.590 8.186 0.473 18.183 o
-26 0 10 20.837 21.209 1.187 2.887 o
-26 0 11 4.609 4.716 0.342 35.176 o
-26 0 12 2.426 2.142 0.302 45.702 o
-26 2 1 10.636 10.649 0.453 19.427 o
-26 2 2 52.326 50.321 1.428 1.829 o
-26 2 4 26.107 26.558 0.835 5.498 o
-26 2 5 23.057 23.894 0.794 6.135 o
-26 2 6 0.716 0.815 0.141 210.467 o
-26 2 9 7.854 7.432 0.322 38.345 o
-26 2 10 19.408 19.891 0.825 5.845 o
-26 2 11 4.391 4.515 0.251 64.319 o
-26 2 12 2.236 1.850 0.201 102.356 o
-26 4 1 8.493 8.568 0.362 30.353 o
-26 4 2 40.332 39.471 1.126 2.951 o
-26 4 4 19.858 20.394 0.654 9.004 o
-26 4 5 17.582 18.644 0.664 8.892 o
-26 4 6 0.628 0.694 0.131 244.171 o
-26 4 9 5.997 5.581 0.292 47.403 o
-26 4 10 15.668 16.110 0.684 8.521 o
-26 4 11 3.782 3.892 0.251 64.787 o
-26 4 12 1.749 1.448 0.201 102.758 o
-26 6 1 5.790 6.255 0.302 44.356 o
-26 6 2 26.333 26.257 0.825 5.620 o
-26 6 4 12.659 13.395 0.463 18.229 o
-26 6 5 11.244 12.299 0.473 17.732 o
-26 6 6 0.507 0.573 0.131 244.361 o
-26 6 9 3.834 3.560 0.211 91.129 o
-26 6 10 10.982 11.263 0.593 11.509 o
-26 6 11 2.923 3.047 0.221 84.052 o
-26 8 1 3.412 3.791 0.221 83.471 o
-26 8 2 14.597 14.853 0.523 14.252 o
-26 8 4 6.788 7.291 0.302 43.793 o
-26 8 5 6.063 6.848 0.312 41.454 o
-26 8 6 0.374 0.422 0.141 210.869 o
-26 8 9 2.071 1.820 0.191 113.431 o
-26 10 1 1.748 2.001 0.151 181.336 o
-26 10 2 6.918 7.090 0.302 43.782 o
-26 10 4 3.089 3.339 0.181 124.114 o
-26 10 5 2.784 3.198 0.201 101.412 o
-26 12 1 0.779 0.865 0.131 243.868 o
-26 12 2 2.837 2.776 0.161 157.092 o
-25 1 1 57.215 55.018 1.870 1.102 o
-25 1 2 9.829 10.499 0.372 28.294 o
-25 1 3 1.354 0.895 0.141 209.603 o
-25 1 4 45.087 44.780 1.307 2.205 o
-25 1 5 56.574 56.385 1.649 1.387 o
-25 1 7 2.335 2.021 0.181 125.879 o
-25 1 8 0.623 0.573 0.131 244.244 o
-25 1 10 0.139 0.684 0.141 210.918 o
-25 1 11 1.922 1.629 0.161 159.655 o
-25 1 12 1.949 1.840 0.181 126.343 o
-25 1 13 3.392 2.876 0.211 91.804 o
-25 3 1 48.951 47.576 1.488 1.719 o
-25 3 2 9.193 9.946 0.362 30.017 o
-25 3 3 1.139 0.634 0.121 285.505 o
-25 3 4 38.484 38.908 1.136 2.925 o
-25 3 5 48.421 48.240 1.408 1.902 o
-25 3 7 1.915 1.529 0.161 159.734 o
-25 3 8 0.398 0.453 0.141 210.848 o
-25 3 10 0.134 0.664 0.151 183.749 o
-25 3 11 1.674 1.368 0.161 160.142 o
-25 3 12 1.529 1.398 0.151 182.181 o
-25 5 1 35.843 34.875 1.156 2.875 o
-25 5 2 7.808 8.306 0.302 43.156 o
-25 5 3 0.831 0.543 0.121 286.234 o
-25 5 4 28.203 28.560 0.875 4.980 o
-25 5 5 35.689 36.554 1.106 3.112 o
-25 5 6 0.619 0.392 0.121 286.680 o
-25 5 7 1.266 0.915 0.161 160.800 o
-25 5 10 0.122 0.754 0.141 210.910 o
-25 5 11 1.268 1.086 0.151 182.734 o
-25 5 12 0.931 0.664 0.151 183.291 o
-25 7 1 22.577 22.938 0.825 5.747 o
-25 7 2 5.948 6.305 0.261 58.270 o
-25 7 3 0.524 0.473 0.121 286.751 o
-25 7 4 17.818 18.514 0.613 10.288 o
-25 7 5 22.710 24.155 0.804 5.999 o
-25 7 6 0.596 0.473 0.161 161.384 o
-25 7 7 0.675 0.442 0.141 210.667 o
-25 7 10 0.103 0.613 0.161 161.519 o
-25 7 11 0.841 1.016 0.161 161.095 o
-25 9 1 12.344 13.033 0.493 16.244 o
-25 9 2 4.026 4.344 0.211 90.567 o
-25 9 3 0.284 0.302 0.121 287.067 o
-25 9 4 9.747 10.368 0.392 25.658 o
-25 9 5 12.509 13.707 0.543 13.477 o
-25 9 6 0.496 0.402 0.141 210.806 o
-25 11 1 5.916 6.195 0.312 41.603 o
-25 11 2 2.379 2.393 0.151 179.655 o
-25 11 4 4.652 4.777 0.241 69.369 o
-25 11 5 6.011 6.426 0.312 41.537 o
-24 0 2 22.424 21.621 0.915 4.737 o
-24 0 3 25.700 25.483 1.066 3.493 o
-24 0 4 0.536 0.453 0.171 142.996 o
-24 0 5 5.836 5.179 0.302 44.522 o
-24 0 7 41.320 38.877 2.011 0.996 o
-24 0 8 7.687 7.934 0.432 21.718 o
-24 0 9 7.469 7.763 0.442 20.799 o
-24 0 10 35.405 35.297 1.639 1.492 o
-24 0 12 5.525 5.008 0.342 34.982 o
-24 2 2 21.151 20.485 0.623 9.740 o
-24 2 3 23.740 23.562 0.734 7.077 o
-24 2 4 0.526 0.473 0.111 341.147 o
-24 2 5 5.262 4.726 0.221 81.460 o
-24 2 7 38.434 36.565 1.317 2.239 o
-24 2 8 7.113 7.351 0.322 38.600 o
-24 2 9 6.878 7.200 0.292 46.691 o
-24 2 10 32.956 33.125 1.106 3.157 o
-24 2 12 5.024 4.445 0.221 81.830 o
-24 4 2 17.777 17.377 0.553 12.492 o
-24 4 3 18.747 18.966 0.603 10.537 o
-24 4 4 0.431 0.362 0.121 286.916 o
-24 4 5 3.891 3.610 0.191 110.516 o
-24 4 7 31.108 29.927 1.036 3.604 o
-24 4 8 5.665 5.883 0.282 50.796 o
-24 4 9 5.394 5.581 0.261 58.805 o
-24 4 10 26.582 26.327 1.006 3.885 o
-24 4 12 3.782 3.369 0.201 100.340 o
-24 6 2 13.282 13.405 0.463 18.148 o
-24 6 3 12.686 12.842 0.442 19.837 o
-24 6 5 2.382 2.373 0.151 179.670 o
-24 6 7 21.992 21.450 0.774 6.497 o
-24 6 8 3.909 3.962 0.221 83.025 o
-24 6 9 3.624 3.831 0.221 83.299 o
-24 6 10 18.599 19.147 0.835 5.734 o
-24 6 12 2.369 2.273 0.191 113.000 o
-24 8 2 8.745 9.181 0.332 35.606 o
-24 8 3 7.364 7.391 0.292 46.424 o
-24 8 5 1.209 1.287 0.131 242.721 o
-24 8 6 0.328 0.382 0.131 244.574 o
-24 8 7 13.534 13.264 0.553 12.961 o
-24 8 8 2.349 2.092 0.171 140.822 o
-24 8 9 2.094 2.313 0.181 125.977 o
-24 8 10 11.316 11.545 0.623 10.436 o
-24 10 2 5.034 5.400 0.241 68.885 o
-24 10 3 3.682 3.731 0.191 110.718 o
-24 10 5 0.517 0.634 0.141 210.714 o
-24 10 7 7.275 6.828 0.362 30.805 o
-24 10 8 1.239 1.116 0.131 242.839 o
-24 10 9 1.047 1.146 0.141 209.872 o
-24 12 2 2.523 2.735 0.161 157.754 o
-24 12 3 1.598 1.599 0.131 241.383 o
-24 12 5 0.193 0.312 0.101 413.392 o
-23 1 1 15.330 14.431 0.573 11.966 o
-23 1 2 28.186 28.268 0.815 5.672 o
-23 1 3 44.372 44.981 1.257 2.370 o
-23 1 5 12.399 12.621 0.422 21.690 o
-23 1 6 29.058 28.027 0.845 5.294 o
-23 1 7 9.734 10.609 0.402 24.440 o
-23 1 8 35.186 35.539 1.066 3.341 o
-23 1 10 5.118 5.843 0.261 58.886 o
-23 1 11 3.030 2.605 0.171 139.418 o
-23 1 12 4.855 4.696 0.231 75.175 o
-23 1 13 7.121 6.768 0.352 32.566 o
-23 1 14 4.592 4.415 0.282 51.515 o
-23 3 1 14.049 13.475 0.473 17.339 o
-23 3 2 24.829 24.980 0.744 6.843 o
-23 3 3 36.801 37.822 1.086 3.199 o
-23 3 5 9.711 9.875 0.342 33.259 o
-23 3 6 24.387 22.677 0.915 4.699 o
-23 3 7 8.228 8.789 0.352 32.061 o
-23 3 8 30.348 30.732 0.986 3.955 o
-23 3 10 4.230 4.897 0.221 82.356 o
-23 3 11 2.687 2.363 0.171 140.151 o
-23 3 12 4.185 4.073 0.221 82.753 o
-23 3 13 6.252 5.772 0.322 39.089 o
-23 5 1 11.452 10.951 0.412 23.004 o
-23 5 2 18.930 19.157 0.593 10.848 o
-23 5 3 25.168 25.865 0.774 6.342 o
-23 5 5 6.118 6.205 0.251 62.695 o
-23 5 6 17.274 16.904 0.603 10.687 o
-23 5 7 5.928 6.416 0.292 47.265 o
-23 5 8 22.673 22.747 0.825 5.747 o
-23 5 10 2.903 3.349 0.191 111.919 o
-23 5 11 2.099 1.840 0.161 159.248 o
-23 5 12 3.108 2.967 0.191 111.903 o
-23 5 13 4.815 4.495 0.302 44.939 o
-23 7 1 8.284 8.166 0.332 35.921 o
-23 7 2 12.621 12.791 0.422 21.636 o
-23 7 3 14.348 14.873 0.483 16.559 o
-23 7 5 3.048 3.057 0.161 156.341 o
-23 7 6 10.375 10.277 0.412 23.246 o
-23 7 7 3.634 3.912 0.221 83.260 o
-23 7 8 14.685 14.451 0.553 12.841 o
-23 7 10 1.660 2.011 0.161 159.752 o
-23 7 11 1.439 1.126 0.151 182.494 o
-23 7 12 2.006 1.820 0.171 141.415 o
-23 9 1 5.332 5.410 0.251 63.497 o
-23 9 2 7.459 7.623 0.282 49.483 o
-23 9 3 6.932 7.321 0.282 49.844 o
-23 9 5 1.150 1.156 0.141 209.715 o
-23 9 6 5.331 5.239 0.322 39.398 o
-23 9 7 1.886 2.051 0.171 141.420 o
-23 9 8 8.249 8.125 0.362 30.459 o
-23 9 10 0.796 1.016 0.141 210.275 o
-23 11 1 3.021 3.037 0.171 139.066 o
-23 11 2 3.887 3.932 0.181 122.372 o
-23 11 3 2.857 2.926 0.171 139.439 o
-23 11 5 0.316 0.352 0.111 341.537 o
-23 11 6 2.382 2.273 0.181 125.693 o
-23 11 7 0.830 0.935 0.141 210.282 o
-23 11 8 4.033 3.852 0.241 70.043 o
-23 13 1 1.502 1.478 0.121 283.188 o
-23 13 2 1.783 1.760 0.131 240.612 o
-23 13 3 1.014 0.905 0.111 339.356 o
-22 0 1 5.575 5.471 0.392 26.698 o
-22 0 2 0.684 0.664 0.151 183.478 o
-22 0 3 20.833 20.776 0.875 5.191 o
-22 0 4 2.217 2.243 0.191 113.145 o
-22 0 5 13.885 14.149 0.674 8.860 o
-22 0 6 5.985 6.034 0.342 34.783 o
-22 0 7 126.792 123.842 6.396 0.099 o
-22 0 8 15.169 15.507 0.724 7.661 o
-22 0 9 19.854 19.187 0.875 5.220 o
-22 0 10 14.523 14.501 0.684 8.585 o
-22 0 13 10.998 10.177 0.664 9.270 o
-22 2 1 5.323 5.370 0.241 68.684 o
-22 2 2 0.754 0.603 0.111 340.535 o
-22 2 3 18.856 18.966 0.583 11.203 o
-22 2 4 2.108 2.162 0.141 206.643 o
-22 2 5 12.663 13.023 0.442 19.827 o
-22 2 6 5.345 5.450 0.241 68.638 o
-22 2 7 116.803 113.042 4.706 0.179 o
-22 2 8 13.939 14.189 0.463 18.009 o
-22 2 9 17.947 17.699 0.593 10.959 o
-22 2 10 13.293 13.274 0.463 18.155 o
-22 2 13 10.062 9.382 0.463 18.759 o
-22 2 14 0.437 0.392 0.151 183.688 o
-22 4 1 4.153 4.204 0.211 90.509 o
-22 4 2 0.898 0.784 0.121 285.872 o
-22 4 3 13.870 14.129 0.453 18.767 o
-22 4 4 1.698 1.689 0.121 282.052 o
-22 4 5 9.635 9.996 0.352 31.515 o
-22 4 6 3.796 3.972 0.201 99.989 o
-22 4 7 91.706 90.566 3.278 0.363 o
-22 4 8 10.860 11.182 0.402 24.180 o
-22 4 9 13.195 12.852 0.463 18.195 o
-22 4 10 10.280 10.438 0.372 28.192 o
-22 4 13 7.704 7.301 0.382 27.636 o
-22 6 1 2.504 2.393 0.161 158.110 o
-22 6 2 0.998 0.945 0.121 285.470 o
-22 6 3 8.290 8.558 0.312 40.332 o
-22 6 4 1.126 1.177 0.121 284.847 o
-22 6 5 6.161 6.406 0.251 62.592 o
-22 6 6 2.130 2.333 0.151 180.268 o
-22 6 7 61.712 61.946 2.041 0.925 o
-22 6 8 7.223 7.170 0.312 41.004 o
-22 6 9 7.866 7.824 0.332 36.103 o
-22 6 10 6.778 6.939 0.282 50.020 o
-22 6 13 4.948 4.706 0.261 59.276 o
-22 8 1 1.288 1.327 0.151 182.560 o
-22 8 2 0.975 0.965 0.111 339.384 o
-22 8 3 4.111 4.374 0.191 109.652 o
-22 8 4 0.660 0.674 0.111 340.674 o
-22 8 5 3.341 3.560 0.211 91.564 o
-22 8 6 0.931 1.096 0.151 183.095 o
-22 8 7 35.708 36.755 1.257 2.459 o
-22 8 8 4.123 4.012 0.211 90.635 o
-22 8 9 3.820 3.660 0.201 100.138 o
-22 8 10 3.812 3.932 0.201 99.993 o
-22 10 1 0.566 0.634 0.121 286.588 o
-22 10 2 0.796 0.815 0.121 286.048 o
-22 10 3 1.723 1.931 0.131 240.535 o
-22 10 4 0.347 0.442 0.111 341.444 o
-22 10 5 1.549 1.659 0.141 208.563 o
-22 10 6 0.306 0.382 0.131 244.587 o
-22 10 7 17.893 18.111 0.794 6.327 o
-22 10 8 2.039 1.931 0.151 180.861 o
-22 10 9 1.516 1.428 0.181 126.859 o
-22 10 10 1.847 1.860 0.151 181.285 o
-22 12 2 0.528 0.442 0.111 341.171 o
-22 12 3 0.620 0.694 0.111 340.741 o
-22 12 4 0.159 0.292 0.121 287.145 o
-22 12 5 0.617 0.664 0.131 244.201 o
-22 12 7 7.849 7.894 0.493 16.828 o
-22 12 8 0.884 0.684 0.121 286.002 o
-22 14 2 0.286 0.282 0.091 510.146 o
-21 1 1 93.590 89.209 3.801 0.274 o
-21 1 2 8.512 7.844 0.282 48.825 o
-21 1 4 0.270 0.392 0.111 341.566 o
-21 1 5 59.282 58.316 1.639 1.390 o
-21 1 6 28.760 26.730 0.784 6.075 o
-21 1 7 6.759 7.150 0.272 53.534 o
-21 1 8 17.833 17.790 0.573 11.682 o
-21 1 9 2.441 2.273 0.151 179.651 o
-21 1 10 9.997 10.318 0.372 28.275 o
-21 1 11 0.634 0.523 0.121 286.570 o
-21 1 12 23.208 23.149 0.885 5.021 o
-21 1 13 1.287 1.619 0.161 160.438 o
-21 3 1 78.839 75.271 2.665 0.546 o
-21 3 2 6.987 6.416 0.251 61.969 o
-21 3 4 0.217 0.261 0.111 341.677 o
-21 3 5 49.733 49.366 1.337 2.073 o
-21 3 6 24.459 23.340 0.704 7.613 o
-21 3 7 5.318 5.571 0.241 68.612 o
-21 3 8 15.154 14.823 0.493 15.854 o
-21 3 9 2.086 1.921 0.151 180.779 o
-21 3 10 8.400 8.729 0.332 35.794 o
-21 3 11 0.554 0.493 0.121 286.700 o
-21 3 12 19.502 19.559 0.794 6.275 o
-21 3 13 1.286 1.539 0.141 209.179 o
-21 5 1 56.866 55.359 1.659 1.372 o
-21 5 2 5.200 4.636 0.211 89.124 o
-21 5 5 34.965 36.021 1.086 3.229 o
-21 5 6 17.174 16.422 0.543 13.010 o
-21 5 7 3.339 3.630 0.201 100.671 o
-21 5 8 11.088 11.122 0.382 26.562 o
-21 5 9 1.484 1.257 0.131 242.124 o
-21 5 10 5.912 6.175 0.261 58.331 o
-21 5 11 0.416 0.392 0.121 286.916 o
-21 5 12 13.809 13.988 0.613 10.611 o
-21 5 13 1.241 1.448 0.151 182.542 o
-21 7 1 35.083 34.976 1.086 3.233 o
-21 7 2 3.486 3.127 0.171 138.140 o
-21 7 5 20.700 21.571 0.744 7.033 o
-21 7 6 10.118 9.865 0.372 28.300 o
-21 7 7 1.661 1.870 0.161 159.845 o
-21 7 8 7.005 7.190 0.322 38.659 o
-21 7 9 0.892 0.744 0.151 183.290 o
-21 7 10 3.513 3.540 0.181 123.318 o
-21 7 12 8.286 7.834 0.453 19.829 o
-21 7 13 1.100 1.197 0.151 182.865 o
-21 9 1 18.490 18.825 0.664 8.849 o
-21 9 2 2.042 1.700 0.131 239.887 o
-21 9 3 0.157 0.231 0.101 413.472 o
-21 9 5 10.356 10.921 0.442 20.293 o
-21 9 6 5.172 5.149 0.241 68.877 o
-21 9 7 0.641 0.764 0.161 161.293 o
-21 9 8 3.821 4.002 0.211 90.934 o
-21 9 9 0.466 0.372 0.141 210.833 o
-21 9 10 1.783 1.901 0.161 159.660 o
-21 11 1 8.449 8.628 0.352 32.025 o
-21 11 2 1.081 0.784 0.121 285.465 o
-21 11 5 4.373 4.626 0.231 75.578 o
-21 11 6 2.320 2.283 0.201 102.151 o
-21 11 7 0.188 0.322 0.111 341.676 o
-21 11 8 1.818 1.870 0.151 181.328 o
-21 13 1 3.398 3.389 0.171 138.058 o
-21 13 2 0.526 0.362 0.091 509.331 o
-21 13 5 1.557 1.508 0.141 208.699 o
-21 13 6 0.930 0.855 0.141 210.213 o
-20 0 3 23.603 23.200 0.935 4.518 o
-20 0 4 35.371 35.669 1.438 1.914 o
-20 0 5 7.284 7.220 0.402 25.090 o
-20 0 6 2.916 2.977 0.201 101.393 o
-20 0 7 7.115 6.798 0.362 30.840 o
-20 0 8 5.037 4.666 0.292 47.916 o
-20 0 9 5.706 5.169 0.312 41.818 o
-20 0 10 0.456 0.644 0.171 142.991 o
-20 0 11 5.306 5.310 0.322 39.395 o
-20 0 12 4.312 4.103 0.282 51.666 o
-20 0 13 1.618 1.579 0.211 93.286 o
-20 0 15 10.373 9.604 0.734 7.627 o
-20 2 3 21.678 21.198 0.634 9.412 o
-20 2 4 31.413 31.516 0.955 4.164 o
-20 2 5 6.816 6.798 0.261 57.557 o
-20 2 6 2.618 2.705 0.151 178.710 o
-20 2 7 7.037 6.909 0.261 57.371 o
-20 2 8 4.659 4.234 0.191 108.917 o
-20 2 9 5.142 4.616 0.211 89.204 o
-20 2 10 0.458 0.684 0.131 244.355 o
-20 2 11 4.778 4.676 0.211 89.588 o
-20 2 12 4.090 3.902 0.211 90.723 o
-20 2 13 1.511 1.539 0.141 208.758 o
-20 2 15 9.561 8.709 0.523 14.861 o
-20 4 1 0.167 0.322 0.141 210.972 o
-20 4 3 17.125 17.035 0.513 14.414 o
-20 4 4 22.702 22.466 0.664 8.570 o
-20 4 5 5.703 5.682 0.221 80.498 o
-20 4 6 1.791 1.790 0.131 240.540 o
-20 4 7 6.425 6.376 0.251 62.410 o
-20 4 8 3.710 3.138 0.171 137.694 o
-20 4 9 3.809 3.490 0.181 122.880 o
-20 4 10 0.465 0.483 0.141 210.800 o
-20 4 11 3.469 3.278 0.181 123.591 o
-20 4 12 3.483 3.258 0.181 123.586 o
-20 4 13 1.227 1.247 0.131 242.726 o
-20 6 1 0.328 0.362 0.131 244.579 o
-20 6 3 11.749 11.494 0.382 26.362 o
-20 6 4 13.621 13.656 0.453 18.837 o
-20 6 5 4.310 4.354 0.221 82.526 o
-20 6 6 0.897 0.815 0.141 210.275 o
-20 6 7 5.221 5.380 0.251 63.578 o
-20 6 8 2.564 2.062 0.161 158.301 o
-20 6 9 2.337 2.112 0.141 206.079 o
-20 6 10 0.451 0.463 0.121 286.842 o
-20 6 11 2.015 1.931 0.151 180.906 o
-20 6 12 2.648 2.434 0.171 140.157 o
-20 6 13 0.862 0.945 0.131 243.684 o
-20 8 1 0.457 0.553 0.121 286.783 o
-20 8 3 6.875 6.788 0.261 57.521 o
-20 8 4 6.605 6.798 0.261 57.697 o
-20 8 5 2.872 2.987 0.171 139.363 o
-20 8 6 0.343 0.463 0.111 341.436 o
-20 8 7 3.873 3.962 0.201 99.906 o
-20 8 8 1.543 1.197 0.141 209.024 o
-20 8 9 1.173 0.986 0.131 243.104 o
-20 8 10 0.377 0.382 0.111 341.444 o
-20 8 11 0.931 0.865 0.131 243.638 o
-20 8 12 1.787 1.669 0.181 126.558 o
-20 10 1 0.475 0.483 0.111 341.225 o
-20 10 3 3.421 3.258 0.161 155.249 o
-20 10 4 2.578 2.655 0.151 178.873 o
-20 10 5 1.675 1.750 0.131 240.949 o
-20 10 7 2.574 2.735 0.171 140.041 o
-20 10 8 0.813 0.623 0.121 286.195 o
-20 10 9 0.479 0.382 0.111 341.300 o
-20 12 1 0.376 0.402 0.111 341.433 o
-20 12 3 1.454 1.267 0.111 336.863 o
-20 12 4 0.825 0.794 0.101 411.092 o
-20 12 5 0.860 0.855 0.131 243.757 o
-20 12 7 1.482 1.549 0.141 208.806 o
-20 12 8 0.379 0.312 0.111 341.487 o
-20 14 3 0.525 0.352 0.091 509.355 o
-20 14 5 0.387 0.352 0.101 413.063 o
-19 1 1 127.381 120.645 5.099 0.152 o
-19 1 2 17.012 16.482 0.483 16.129 o
-19 1 3 8.180 8.075 0.282 48.951 o
-19 1 4 11.624 11.293 0.362 29.173 o
-19 1 5 2.611 2.283 0.141 205.007 o
-19 1 6 23.648 22.637 0.664 8.519 o
-19 1 7 1.516 1.539 0.121 283.033 o
-19 1 8 60.398 61.122 1.710 1.281 o
-19 1 9 21.117 20.877 0.644 9.186 o
-19 1 10 8.361 8.467 0.342 33.881 o
-19 1 11 35.569 34.583 1.096 3.176 o
-19 1 12 2.979 3.117 0.181 124.426 o
-19 1 13 4.756 4.787 0.221 81.923 o
-19 1 15 2.095 2.313 0.231 77.552 o
-19 3 1 106.540 100.180 3.570 0.304 o
-19 3 2 15.111 14.903 0.453 18.524 o
-19 3 3 6.463 6.537 0.251 62.321 o
-19 3 4 9.018 8.910 0.302 42.460 o
-19 3 5 2.161 1.810 0.131 239.301 o
-19 3 6 21.137 20.072 0.623 9.753 o
-19 3 7 1.533 1.448 0.131 241.757 o
-19 3 8 50.203 50.422 1.418 1.863 o
-19 3 9 17.765 17.478 0.563 12.084 o
-19 3 10 6.575 6.537 0.272 53.816 o
-19 3 11 30.157 29.304 0.925 4.455 o
-19 3 12 2.541 2.695 0.171 140.121 o
-19 3 13 4.294 4.334 0.221 82.548 o
-19 3 15 1.777 1.991 0.201 102.595 o
-19 5 1 75.695 72.525 2.434 0.649 o
-19 5 2 11.924 11.364 0.372 27.656 o
-19 5 3 3.105 2.946 0.141 202.193 o
-19 5 4 5.569 5.420 0.211 88.192 o
-19 5 5 1.394 1.237 0.121 283.961 o
-19 5 6 17.276 16.784 0.583 11.385 o
-19 5 7 1.558 1.539 0.131 241.572 o
-19 5 8 34.944 35.539 1.026 3.585 o
-19 5 9 12.509 12.440 0.422 21.687 o
-19 5 10 4.032 4.002 0.191 110.042 o
-19 5 11 21.661 20.997 0.674 8.422 o
-19 5 12 1.880 2.031 0.151 181.068 o
-19 5 13 3.489 3.369 0.201 100.651 o
-19 7 1 45.952 45.887 1.358 2.051 o
-19 7 2 8.357 8.045 0.302 42.969 o
-19 7 3 0.825 0.533 0.101 411.596 o
-19 7 4 2.647 2.645 0.141 204.315 o
-19 7 5 0.734 0.644 0.121 286.316 o
-19 7 6 12.548 12.379 0.453 19.075 o
-19 7 7 1.456 1.388 0.141 209.007 o
-19 7 8 20.449 20.977 0.674 8.476 o
-19 7 9 7.425 7.240 0.272 53.108 o
-19 7 10 1.902 1.951 0.141 207.442 o
-19 7 11 13.239 12.731 0.493 16.170 o
-19 7 12 1.205 1.358 0.141 209.471 o
-19 7 13 2.530 2.413 0.191 112.789 o
-19 9 1 23.895 25.000 0.815 5.824 o
-19 9 2 5.183 5.058 0.221 81.373 o
-19 9 4 0.920 0.965 0.121 285.628 o
-19 9 5 0.334 0.362 0.101 413.151 o
-19 9 6 7.894 7.824 0.342 34.100 o
-19 9 7 1.172 1.056 0.121 284.887 o
-19 9 8 10.095 10.006 0.392 25.625 o
-19 9 9 3.758 3.359 0.211 91.289 o
-19 9 10 0.673 0.543 0.111 340.792 o
-19 9 11 6.940 6.697 0.322 38.755 o
-19 9 12 0.667 0.734 0.131 244.103 o
-19 11 1 10.753 11.655 0.432 21.089 o
-19 11 2 2.843 2.715 0.141 203.542 o
-19 11 4 0.230 0.312 0.101 413.346 o
-19 11 6 4.353 4.304 0.211 90.252 o
-19 11 7 0.804 0.794 0.121 286.050 o
-19 11 8 4.239 4.043 0.211 90.503 o
-19 11 9 1.629 1.388 0.131 241.584 o
-19 13 1 4.234 4.475 0.211 90.287 o
-19 13 2 1.380 1.217 0.111 337.317 o
-19 13 6 2.124 2.112 0.151 180.510 o
-19 13 7 0.469 0.392 0.091 509.477 o
-19 13 8 1.529 1.267 0.121 283.463 o
-19 15 1 1.470 1.468 0.131 241.895 o
-19 15 2 0.594 0.473 0.080 643.418 o
-18 0 1 30.019 28.630 1.358 2.174 o
-18 0 2 174.706 174.516 7.251 0.075 o
-18 0 3 19.711 18.725 0.754 6.928 o
-18 0 4 2.409 2.625 0.221 84.468 o
-18 0 5 15.093 14.974 0.573 11.964 o
-18 0 6 44.334 46.249 1.740 1.301 o
-18 0 7 0.220 0.372 0.151 183.766 o
-18 0 8 10.113 10.589 0.513 15.330 o
-18 0 9 12.165 12.872 0.613 10.709 o
-18 0 10 5.417 5.762 0.352 33.006 o
-18 0 11 1.566 1.800 0.201 102.762 o
-18 0 12 46.987 46.802 2.011 0.984 o
-18 0 13 22.500 23.049 1.126 3.178 o
-18 0 14 0.727 0.523 0.191 114.444 o
-18 0 15 6.495 6.124 0.483 17.666 o
-18 2 1 30.192 28.912 0.986 3.970 o
-18 2 2 161.224 161.614 4.807 0.164 o
-18 2 3 18.143 16.452 0.583 11.338 o
-18 2 4 1.985 2.031 0.121 280.074 o
-18 2 5 14.097 13.847 0.402 23.231 o
-18 2 6 40.071 41.210 1.116 2.992 o
-18 2 7 0.127 0.282 0.121 287.163 o
-18 2 8 9.384 10.046 0.342 33.336 o
-18 2 9 11.279 11.856 0.392 25.191 o
-18 2 10 4.926 5.139 0.221 81.589 o
-18 2 11 1.325 1.689 0.131 241.982 o
-18 2 12 43.774 43.664 1.438 1.863 o
-18 2 13 20.578 21.078 0.764 6.702 o
-18 2 14 0.616 0.493 0.151 183.574 o
-18 2 15 5.995 5.511 0.302 44.413 o
-18 4 1 27.396 26.378 0.804 5.848 o
-18 4 2 125.660 124.285 4.093 0.230 o
-18 4 3 13.415 12.560 0.392 24.629 o
-18 4 4 1.527 1.438 0.111 336.097 o
-18 4 5 11.820 11.434 0.362 29.096 o
-18 4 6 30.055 31.044 0.905 4.622 o
-18 4 8 7.253 7.914 0.282 49.516 o
-18 4 9 8.930 9.393 0.342 33.577 o
-18 4 10 3.764 3.831 0.191 110.539 o
-18 4 11 0.805 1.156 0.131 243.607 o
-18 4 12 35.333 34.473 1.207 2.664 o
-18 4 13 15.733 15.778 0.644 9.566 o
-18 4 15 4.714 4.284 0.261 59.495 o
-18 6 1 21.200 20.605 0.654 8.933 o
-18 6 2 82.878 81.868 2.796 0.495 o
-18 6 3 7.890 7.200 0.261 56.666 o
-18 6 4 1.260 1.207 0.111 337.859 o
-18 6 5 8.843 8.508 0.312 40.116 o
-18 6 6 19.017 19.911 0.654 9.055 o
-18 6 8 4.614 4.968 0.211 89.608 o
-18 6 9 6.034 6.255 0.251 62.737 o
-18 6 10 2.453 2.434 0.151 179.438 o
-18 6 11 0.335 0.644 0.121 286.870 o
-18 6 12 24.724 24.366 0.965 4.232 o
-18 6 13 10.083 10.328 0.483 17.241 o
-18 8 1 14.885 14.421 0.503 15.323 o
-18 8 2 47.150 47.375 1.337 2.096 o
-18 8 3 3.994 3.459 0.161 153.542 o
-18 8 4 0.825 0.724 0.111 340.201 o
-18 8 5 5.635 5.631 0.231 74.102 o
-18 8 6 10.129 10.820 0.402 24.350 o
-18 8 7 0.432 0.513 0.111 341.271 o
-18 8 8 2.538 2.705 0.151 178.909 o
-18 8 9 3.532 3.580 0.181 123.256 o
-18 8 10 1.354 1.348 0.151 182.461 o
-18 8 11 0.075 0.442 0.141 210.981 o
-18 8 12 15.084 14.129 0.674 8.820 o
-18 8 13 5.466 5.239 0.282 51.019 o
-18 10 1 9.310 9.272 0.342 33.480 o
-18 10 2 23.314 23.994 0.714 7.452 o
-18 10 3 1.767 1.327 0.141 208.454 o
-18 10 4 0.434 0.402 0.121 286.893 o
-18 10 5 3.055 3.127 0.181 124.313 o
-18 10 6 4.551 4.747 0.231 75.396 o
-18 10 7 0.613 0.644 0.131 244.218 o
-18 10 8 1.245 1.348 0.131 242.576 o
-18 10 9 1.812 1.700 0.141 207.952 o
-18 10 10 0.631 0.573 0.121 286.536 o
-18 10 12 8.065 7.542 0.412 23.795 o
-18 12 1 4.974 5.249 0.241 68.983 o
-18 12 2 10.020 10.177 0.392 25.623 o
-18 12 3 0.662 0.463 0.101 412.255 o
-18 12 5 1.436 1.448 0.121 283.472 o
-18 12 6 1.739 1.931 0.141 207.854 o
-18 12 7 0.564 0.543 0.101 412.424 o
-18 12 8 0.551 0.523 0.111 341.057 o
-18 12 9 0.822 0.724 0.121 286.085 o
-18 12 10 0.250 0.372 0.141 210.936 o
-18 14 1 2.277 2.232 0.151 180.061 o
-18 14 2 3.773 3.449 0.171 137.254 o
-18 14 5 0.590 0.613 0.091 508.554 o
-18 14 6 0.568 0.583 0.091 508.720 o
-18 14 7 0.381 0.402 0.091 509.745 o
-17 1 1 9.571 10.127 0.442 20.441 o
-17 1 2 126.754 129.454 3.962 0.243 o
-17 1 3 122.501 121.590 3.771 0.268 o
-17 1 4 0.525 0.634 0.101 412.405 o
-17 1 5 1.201 1.217 0.101 408.144 o
-17 1 6 209.947 207.178 6.144 0.100 o
-17 1 7 83.643 84.030 2.826 0.484 o
-17 1 8 27.919 29.244 0.825 5.542 o
-17 1 9 9.797 9.684 0.332 35.156 o
-17 1 10 19.126 18.906 0.593 10.843 o
-17 1 11 28.668 27.705 0.835 5.423 o
-17 1 12 6.413 7.090 0.302 43.978 o
-17 1 13 7.480 8.236 0.392 26.245 o
-17 1 16 2.030 1.840 0.181 126.269 o
-17 3 1 6.716 6.989 0.282 50.039 o
-17 3 2 108.915 109.502 3.409 0.329 o
-17 3 3 110.605 111.936 3.580 0.300 o
-17 3 4 0.439 0.503 0.091 509.391 o
-17 3 5 0.712 0.744 0.091 507.611 o
-17 3 6 179.596 175.602 5.360 0.132 o
-17 3 7 70.812 71.228 2.303 0.725 o
-17 3 8 24.034 24.698 0.724 7.225 o
-17 3 9 7.965 7.542 0.282 49.225 o
-17 3 10 15.693 15.507 0.513 14.639 o
-17 3 11 23.820 23.331 0.744 6.905 o
-17 3 12 5.434 5.933 0.272 54.579 o
-17 3 13 6.444 7.120 0.322 38.841 o
-17 5 1 3.389 3.168 0.161 155.433 o
-17 5 2 79.091 79.464 2.725 0.522 o
-17 5 3 85.065 84.523 2.826 0.483 o
-17 5 4 0.335 0.442 0.091 509.821 o
-17 5 5 0.193 0.302 0.101 413.398 o
-17 5 6 133.916 130.077 4.545 0.188 o
-17 5 7 51.105 51.709 1.398 1.903 o
-17 5 8 18.282 19.298 0.583 11.232 o
-17 5 9 5.578 5.350 0.211 88.225 o
-17 5 10 10.573 10.398 0.362 29.595 o
-17 5 11 16.599 16.351 0.533 13.518 o
-17 5 12 3.874 4.234 0.211 90.771 o
-17 5 13 4.805 5.219 0.251 63.883 o
-17 7 1 1.059 0.885 0.121 285.397 o
-17 7 2 49.071 50.502 1.398 1.917 o
-17 7 3 55.775 56.918 1.689 1.329 o
-17 7 6 86.292 85.267 3.218 0.379 o
-17 7 7 31.718 32.120 0.975 4.000 o
-17 7 8 12.270 13.093 0.422 21.671 o
-17 7 9 3.313 3.148 0.161 155.636 o
-17 7 10 5.862 5.722 0.241 68.132 o
-17 7 11 9.747 9.714 0.362 29.905 o
-17 7 12 2.345 2.595 0.161 158.215 o
-17 7 13 3.121 3.198 0.181 124.169 o
-17 9 2 26.441 28.268 0.815 5.718 o
-17 9 3 31.831 33.346 0.986 3.915 o
-17 9 6 47.648 47.958 1.488 1.723 o
-17 9 7 17.073 17.287 0.603 10.688 o
-17 9 8 7.184 7.421 0.302 43.608 o
-17 9 9 1.611 1.438 0.121 282.870 o
-17 9 10 2.683 2.645 0.161 157.533 o
-17 9 11 4.857 4.958 0.231 75.068 o
-17 9 12 1.224 1.348 0.141 209.448 o
-17 9 13 1.782 1.810 0.151 181.445 o
-17 11 2 12.410 13.375 0.463 18.262 o
-17 11 3 15.845 16.764 0.593 11.117 o
-17 11 6 22.825 22.818 0.774 6.455 o
-17 11 7 8.059 7.944 0.332 36.025 o
-17 11 8 3.681 3.721 0.191 110.725 o
-17 11 9 0.652 0.553 0.121 286.521 o
-17 11 10 1.015 0.986 0.121 285.382 o
-17 11 11 2.093 2.112 0.141 206.751 o
-17 13 2 5.117 5.491 0.251 63.608 o
-17 13 3 6.939 7.261 0.302 43.739 o
-17 13 5 0.138 0.221 0.091 510.456 o
-17 13 6 9.596 9.372 0.372 28.480 o
-17 13 7 3.376 3.148 0.201 100.878 o
-17 13 8 1.655 1.458 0.121 282.668 o
-17 15 2 1.886 1.941 0.141 207.493 o
-17 15 3 2.714 2.574 0.171 139.949 o
-16 0 1 38.498 38.525 1.760 1.293 o
-16 0 2 368.288 358.977 14.863 0.018 o
-16 0 3 36.251 36.424 1.408 1.987 o
-16 0 4 414.238 421.205 17.558 0.013 o
-16 0 5 42.953 41.934 1.428 1.894 o
-16 0 6 40.589 43.855 1.649 1.452 o
-16 0 7 48.982 51.407 1.921 1.067 o
-16 0 8 47.009 47.878 1.850 1.152 o
-16 0 9 1.766 1.770 0.181 126.534 o
-16 0 10 0.844 0.764 0.171 142.810 o
-16 0 11 73.984 76.970 3.992 0.254 o
-16 0 12 29.448 31.235 1.609 1.565 o
-16 0 13 20.721 20.585 1.116 3.253 o
-16 0 14 0.868 0.825 0.241 71.722 o
-16 2 1 32.309 31.969 1.046 3.515 o
-16 2 2 341.586 337.165 9.563 0.041 o
-16 2 3 33.535 33.175 0.895 4.623 o
-16 2 4 379.206 380.930 10.861 0.032 o
-16 2 5 40.764 40.034 1.016 3.532 o
-16 2 6 36.686 38.978 1.056 3.359 o
-16 2 7 45.061 47.123 1.257 2.357 o
-16 2 8 43.087 43.493 1.207 2.566 o
-16 2 9 1.794 1.720 0.121 281.600 o
-16 2 10 0.742 0.654 0.121 286.295 o
-16 2 11 68.009 70.725 2.243 0.765 o
-16 2 12 27.714 29.213 1.116 3.169 o
-16 2 13 19.167 19.318 0.764 6.763 o
-16 2 14 0.861 0.915 0.161 161.115 o
-16 4 1 23.422 23.049 0.704 7.661 o
-16 4 2 262.783 261.563 7.411 0.068 o
-16 4 3 26.481 25.714 0.714 7.291 o
-16 4 4 289.556 292.717 7.542 0.065 o
-16 4 5 31.050 30.259 0.845 5.218 o
-16 4 6 28.070 29.877 0.825 5.530 o
-16 4 7 35.799 36.977 1.016 3.627 o
-16 4 8 33.794 34.091 0.955 4.103 o
-16 4 9 1.914 1.830 0.131 240.092 o
-16 4 10 0.477 0.493 0.111 341.214 o
-16 4 11 52.778 54.947 1.689 1.341 o
-16 4 12 23.145 24.386 0.875 5.120 o
-16 4 13 15.178 15.316 0.664 9.053 o
-16 4 14 0.819 0.815 0.161 161.175 o
-16 6 1 16.708 16.361 0.543 13.052 o
-16 6 2 167.354 167.326 5.068 0.148 o
-16 6 3 17.726 17.015 0.503 14.873 o
-16 6 4 185.258 189.047 5.591 0.121 o
-16 6 5 17.664 16.543 0.513 14.383 o
-16 6 6 18.688 20.133 0.664 8.812 o
-16 6 7 24.797 25.663 0.744 6.832 o
-16 6 8 22.956 23.280 0.684 8.090 o
-16 6 9 1.992 1.991 0.131 239.567 o
-16 6 11 34.666 36.202 1.136 2.974 o
-16 6 12 17.153 18.282 0.654 9.176 o
-16 6 13 10.318 10.388 0.432 21.241 o
-16 6 14 0.717 0.603 0.141 210.564 o
-16 8 1 10.280 10.187 0.372 28.223 o
-16 8 2 92.537 95.072 3.148 0.390 o
-16 8 3 10.038 9.674 0.342 33.186 o
-16 8 4 100.786 104.122 3.479 0.320 o
-16 8 5 8.105 7.522 0.292 46.034 o
-16 8 6 10.635 11.565 0.422 22.070 o
-16 8 7 14.704 15.366 0.533 13.725 o
-16 8 8 13.374 13.304 0.432 20.549 o
-16 8 9 1.797 1.760 0.131 240.568 o
-16 8 11 19.437 19.871 0.664 8.785 o
-16 8 12 11.239 11.565 0.473 17.772 o
-16 8 13 6.057 5.853 0.282 50.628 o
-16 8 14 0.561 0.442 0.141 210.750 o
-16 10 1 5.431 5.310 0.221 80.989 o
-16 10 2 44.679 47.123 1.408 1.924 o
-16 10 3 4.849 4.555 0.201 98.305 o
-16 10 4 46.977 48.843 1.549 1.603 o
-16 10 5 3.038 2.685 0.161 156.766 o
-16 10 6 5.180 5.742 0.251 63.489 o
-16 10 7 7.506 7.673 0.312 40.809 o
-16 10 8 6.762 6.758 0.282 50.074 o
-16 10 9 1.368 1.378 0.121 283.818 o
-16 10 11 9.399 9.393 0.422 22.416 o
-16 10 12 6.496 6.456 0.312 41.377 o
-16 12 1 2.597 2.615 0.151 178.875 o
-16 12 2 18.642 19.881 0.684 8.343 o
-16 12 3 2.025 1.720 0.131 239.909 o
-16 12 4 18.886 19.016 0.714 7.702 o
-16 12 5 0.886 0.694 0.161 161.171 o
-16 12 6 2.193 2.474 0.161 158.587 o
-16 12 7 3.371 3.369 0.191 111.352 o
-16 12 8 3.050 2.957 0.171 139.086 o
-16 12 9 0.887 0.835 0.121 285.843 o
-16 12 11 3.964 3.811 0.231 76.161 o
-16 14 1 1.115 1.016 0.111 338.808 o
-16 14 2 6.793 7.039 0.322 38.748 o
-16 14 3 0.739 0.563 0.091 507.947 o
-16 14 4 6.620 6.708 0.332 36.615 o
-16 14 6 0.809 0.855 0.091 506.711 o
-16 14 7 1.345 1.187 0.111 337.541 o
-16 14 8 1.248 1.046 0.111 338.238 o
-16 16 2 2.196 2.142 0.181 125.960 o
-15 1 1 60.012 59.744 2.896 0.480 o
-15 1 2 70.508 71.962 2.313 0.719 o
-15 1 3 116.126 114.601 3.550 0.302 o
-15 1 4 4.643 4.696 0.161 149.882 o
-15 1 5 2.769 2.464 0.141 204.211 o
-15 1 6 124.288 123.430 3.932 0.248 o
-15 1 7 113.228 114.862 3.671 0.285 o
-15 1 8 15.927 16.040 0.493 15.696 o
-15 1 9 13.918 14.471 0.463 17.993 o
-15 1 10 8.824 8.548 0.342 33.735 o
-15 1 11 0.028 0.784 0.151 183.762 o
-15 1 12 32.746 33.165 1.257 2.489 o
-15 1 15 18.355 18.594 0.835 5.744 o
-15 1 16 0.432 0.412 0.161 161.457 o
-15 3 1 45.054 44.288 1.378 2.007 o
-15 3 2 59.329 59.774 2.011 0.956 o
-15 3 3 110.371 109.814 3.419 0.326 o
-15 3 4 3.216 3.228 0.141 201.242 o
-15 3 5 2.736 2.363 0.121 275.250 o
-15 3 6 108.397 108.477 3.479 0.317 o
-15 3 7 94.301 94.257 3.087 0.404 o
-15 3 8 11.758 11.625 0.372 27.665 o
-15 3 9 12.497 12.661 0.412 22.655 o
-15 3 10 7.794 7.482 0.312 40.736 o
-15 3 11 0.030 0.744 0.151 183.767 o
-15 3 12 27.532 28.107 1.046 3.590 o
-15 3 15 15.397 15.778 0.815 6.098 o
-15 5 1 28.381 27.453 0.835 5.433 o
-15 5 2 40.337 40.165 1.076 3.197 o
-15 5 3 86.584 87.590 2.826 0.481 o
-15 5 4 1.627 1.649 0.101 403.692 o
-15 5 5 2.084 1.780 0.121 280.197 o
-15 5 6 76.951 76.468 2.564 0.587 o
-15 5 7 66.928 66.904 2.243 0.768 o
-15 5 8 6.491 6.325 0.261 57.924 o
-15 5 9 10.307 10.549 0.362 29.647 o
-15 5 10 5.961 5.792 0.241 68.024 o
-15 5 11 0.034 0.674 0.151 183.775 o
-15 5 12 19.427 19.911 0.724 7.471 o
-15 5 15 10.842 11.092 0.563 12.743 o
-15 7 1 15.116 14.793 0.483 16.473 o
-15 7 2 22.955 23.119 0.654 8.779 o
-15 7 3 58.170 59.432 1.850 1.118 o
-15 7 4 0.572 0.583 0.091 508.705 o
-15 7 5 1.397 1.066 0.111 337.577 o
-15 7 6 46.238 46.701 1.398 1.942 o
-15 7 7 40.881 41.160 1.136 2.890 o
-15 7 8 2.532 2.152 0.131 237.274 o
-15 7 9 7.612 7.643 0.272 52.866 o
-15 7 10 3.967 3.761 0.181 122.383 o
-15 7 11 0.035 0.473 0.151 183.797 o
-15 7 12 11.569 11.655 0.442 20.082 o
-15 9 1 6.566 6.094 0.251 62.410 o
-15 9 2 11.342 11.927 0.372 27.735 o
-15 9 3 34.943 36.836 1.096 3.171 o
-15 9 5 0.932 0.714 0.111 339.913 o
-15 9 6 24.698 25.613 0.825 5.667 o
-15 9 7 21.577 21.641 0.714 7.562 o
-15 9 8 0.590 0.473 0.111 341.031 o
-15 9 9 4.886 4.827 0.201 98.068 o
-15 9 10 2.316 2.202 0.151 180.008 o
-15 9 11 0.030 0.442 0.141 210.992 o
-15 9 12 5.874 5.812 0.272 54.388 o
-15 11 1 2.340 2.062 0.141 206.141 o
-15 11 2 4.870 5.350 0.231 74.895 o
-15 11 3 18.199 19.569 0.644 9.367 o
-15 11 5 0.558 0.463 0.101 412.549 o
-15 11 6 11.530 11.907 0.432 20.955 o
-15 11 7 9.932 9.744 0.382 26.972 o
-15 11 9 2.717 2.564 0.151 178.640 o
-15 11 10 1.176 1.126 0.111 338.363 o
-15 11 12 2.562 2.323 0.161 158.067 o
-15 13 1 0.687 0.533 0.091 508.288 o
-15 13 2 1.861 2.102 0.121 280.482 o
-15 13 3 8.195 8.779 0.352 32.071 o
-15 13 5 0.287 0.261 0.080 645.529 o
-15 13 6 4.675 4.636 0.211 89.725 o
-15 13 7 4.027 3.701 0.201 99.879 o
-15 13 9 1.304 1.177 0.111 337.735 o
-15 13 10 0.517 0.442 0.101 412.679 o
-15 15 2 0.661 0.804 0.161 161.271 o
-15 15 3 3.269 3.339 0.221 83.732 o
-15 15 6 1.679 1.629 0.151 181.771 o
-15 15 7 1.455 1.348 0.141 209.047 o
-14 0 1 1.700 1.267 0.151 182.023 o
-14 0 2 1.979 2.403 0.161 158.997 o
-14 0 3 28.145 27.494 1.046 3.586 o
-14 0 4 265.943 270.020 8.980 0.048 o
-14 0 5 5.781 5.038 0.272 54.628 o
-14 0 6 36.185 36.816 1.378 2.070 o
-14 0 7 10.181 10.670 0.493 16.549 o
-14 0 8 21.401 21.611 0.875 5.175 o
-14 0 9 30.378 32.995 1.428 1.964 o
-14 0 10 6.789 6.889 0.463 19.159 o
-14 0 11 98.857 99.496 6.496 0.097 o
-14 0 12 0.585 0.623 0.211 93.717 o
-14 0 13 2.923 2.393 0.292 48.778 o
-14 0 14 1.006 0.885 0.221 85.303 o
-14 0 15 8.163 8.860 0.613 10.925 o
-14 0 16 1.925 1.730 0.312 42.896 o
-14 2 1 1.394 1.146 0.091 500.847 o
-14 2 2 3.025 4.022 0.161 155.283 o
-14 2 3 26.886 26.257 0.714 7.263 o
-14 2 4 242.275 243.441 6.215 0.095 o
-14 2 5 5.969 5.642 0.221 80.228 o
-14 2 6 33.363 33.477 0.905 4.533 o
-14 2 7 9.103 9.382 0.312 39.821 o
-14 2 8 20.221 20.032 0.583 11.067 o
-14 2 9 28.618 30.923 0.965 4.132 o
-14 2 10 6.258 6.446 0.302 44.155 o
-14 2 11 90.092 90.969 3.731 0.285 o
-14 2 12 0.655 0.714 0.161 161.298 o
-14 2 13 2.701 2.253 0.181 125.341 o
-14 2 14 0.917 0.784 0.161 161.122 o
-14 2 15 7.605 8.186 0.432 21.713 o
-14 2 16 1.756 1.589 0.221 84.988 o
-14 4 1 0.689 0.513 0.111 340.788 o
-14 4 2 1.956 2.605 0.121 278.830 o
-14 4 3 21.453 20.867 0.553 12.023 o
-14 4 4 181.913 184.934 5.269 0.135 o
-14 4 5 5.497 5.189 0.201 96.925 o
-14 4 6 24.949 25.261 0.704 7.552 o
-14 4 7 6.812 6.899 0.251 61.918 o
-14 4 8 17.703 17.206 0.523 13.849 o
-14 4 9 23.671 25.191 0.794 6.102 o
-14 4 10 4.814 4.958 0.231 75.103 o
-14 4 11 68.948 69.800 2.504 0.623 o
-14 4 12 0.842 0.935 0.151 183.251 o
-14 4 13 2.157 1.679 0.171 141.321 o
-14 4 14 0.705 0.664 0.161 161.285 o
-14 4 15 6.145 6.748 0.352 32.774 o
-14 4 16 1.332 1.348 0.191 114.052 o
-14 6 3 14.358 14.089 0.392 24.216 o
-14 6 4 115.633 116.210 3.610 0.293 o
-14 6 5 4.251 3.580 0.171 136.099 o
-14 6 6 14.814 14.984 0.453 18.563 o
-14 6 7 4.419 4.425 0.181 120.953 o
-14 6 8 14.273 13.898 0.442 19.511 o
-14 6 9 17.022 17.880 0.573 11.736 o
-14 6 10 3.046 3.178 0.181 124.291 o
-14 6 11 44.764 46.088 1.529 1.656 o
-14 6 12 1.045 1.066 0.161 160.923 o
-14 6 13 1.511 1.046 0.151 182.452 o
-14 6 14 0.465 0.513 0.151 183.648 o
-14 6 15 4.307 4.706 0.282 51.564 o
-14 8 2 0.163 0.302 0.080 645.840 o
-14 8 3 8.972 8.920 0.322 37.681 o
-14 8 4 65.219 66.844 2.273 0.751 o
-14 8 5 3.135 2.685 0.151 177.370 o
-14 8 6 7.306 7.492 0.292 46.427 o
-14 8 7 2.412 2.232 0.131 237.588 o
-14 8 8 9.963 10.076 0.352 31.408 o
-14 8 9 10.677 11.142 0.372 28.007 o
-14 8 10 1.602 1.810 0.141 208.293 o
-14 8 11 24.595 25.603 0.885 4.974 o
-14 8 12 1.107 1.056 0.141 209.852 o
-14 8 13 0.932 0.603 0.131 243.837 o
-14 10 2 0.451 0.603 0.091 509.162 o
-14 10 3 5.106 5.189 0.231 74.764 o
-14 10 4 32.605 33.296 1.056 3.442 o
-14 10 5 2.112 1.710 0.121 280.232 o
-14 10 6 3.034 3.077 0.161 156.349 o
-14 10 7 1.099 0.925 0.111 339.030 o
-14 10 8 5.979 6.024 0.241 67.915 o
-14 10 9 5.871 6.124 0.251 62.898 o
-14 10 10 0.701 0.835 0.111 340.381 o
-14 10 11 11.510 11.474 0.463 18.486 o
-14 10 12 0.956 0.835 0.141 210.193 o
-14 10 13 0.512 0.362 0.131 244.449 o
-14 12 2 0.561 0.774 0.080 642.560 o
-14 12 3 2.494 2.534 0.151 179.224 o
-14 12 4 14.166 14.732 0.533 13.795 o
-14 12 5 1.196 0.734 0.111 339.022 o
-14 12 6 1.057 1.056 0.101 409.399 o
-14 12 7 0.420 0.302 0.101 413.049 o
-14 12 8 3.146 3.067 0.161 156.112 o
-14 12 9 2.850 2.836 0.151 177.941 o
-14 12 10 0.252 0.272 0.091 510.229 o
-14 12 11 4.660 4.455 0.221 82.167 o
-14 14 2 0.452 0.623 0.171 142.996 o
-14 14 3 1.045 0.955 0.161 160.967 o
-14 14 4 5.359 5.380 0.312 41.886 o
-14 14 5 0.567 0.503 0.131 244.337 o
-14 14 6 0.317 0.382 0.131 244.580 o
-14 14 8 1.456 1.277 0.111 336.831 o
-14 14 9 1.233 1.116 0.111 338.157 o
-14 16 4 1.784 1.649 0.201 102.686 o
-13 1 1 82.742 83.115 3.188 0.387 o
-13 1 2 9.033 8.860 0.282 48.207 o
-13 1 3 6.174 5.893 0.191 104.722 o
-13 1 4 25.014 25.875 0.603 9.876 o
-13 1 5 186.585 189.117 5.430 0.128 o
-13 1 6 113.484 118.382 3.640 0.289 o
-13 1 7 15.039 16.492 0.493 15.772 o
-13 1 8 5.126 5.621 0.231 74.561 o
-13 1 9 67.572 69.519 2.765 0.518 o
-13 1 10 48.081 50.372 1.679 1.375 o
-13 1 11 0.309 0.463 0.141 210.891 o
-13 1 12 3.393 3.479 0.211 91.555 o
-13 1 13 0.378 0.422 0.161 161.472 o
-13 1 14 0.938 0.734 0.161 161.124 o
-13 1 15 14.395 14.863 0.654 9.359 o
-13 1 16 1.353 1.056 0.191 114.113 o
-13 3 1 67.581 67.900 2.343 0.707 o
-13 3 2 7.841 7.834 0.261 56.469 o
-13 3 3 6.294 6.889 0.221 79.126 o
-13 3 4 22.167 23.471 0.573 11.124 o
-13 3 5 146.627 149.747 4.485 0.189 o
-13 3 6 95.110 96.882 3.057 0.410 o
-13 3 7 13.622 14.934 0.453 18.744 o
-13 3 8 5.064 5.461 0.241 68.842 o
-13 3 9 58.627 58.990 2.273 0.762 o
-13 3 10 40.105 40.657 1.378 2.041 o
-13 3 11 0.351 0.563 0.141 210.843 o
-13 3 12 2.712 2.735 0.191 112.454 o
-13 3 13 0.314 0.392 0.151 183.735 o
-13 3 14 0.932 0.815 0.171 142.752 o
-13 3 15 11.994 12.389 0.593 11.438 o
-13 3 16 1.075 1.016 0.221 85.274 o
-13 5 1 45.911 45.525 1.438 1.849 o
-13 5 2 4.044 3.821 0.151 172.712 o
-13 5 3 1.833 1.981 0.101 400.565 o
-13 5 4 14.773 15.577 0.453 18.524 o
-13 5 5 94.842 96.439 3.027 0.418 o
-13 5 6 63.775 62.479 2.112 0.866 o
-13 5 7 9.870 10.318 0.342 33.136 o
-13 5 8 4.329 4.445 0.191 109.267 o
-13 5 9 45.101 45.736 1.358 2.057 o
-13 5 10 28.314 29.223 1.046 3.575 o
-13 5 11 0.361 0.503 0.141 210.855 o
-13 5 12 1.688 1.518 0.161 160.034 o
-13 5 14 0.901 0.975 0.191 114.321 o
-13 5 15 8.354 8.699 0.463 18.956 o
-13 5 16 0.680 0.674 0.211 93.697 o
-13 7 1 27.789 27.091 0.815 5.698 o
-13 7 2 1.544 1.337 0.091 498.324 o
-13 7 4 8.466 8.608 0.282 48.627 o
-13 7 5 51.892 52.695 1.770 1.236 o
-13 7 6 34.472 34.473 0.935 4.246 o
-13 7 7 6.125 6.225 0.231 73.355 o
-13 7 8 3.187 3.107 0.161 155.974 o
-13 7 9 30.481 30.893 0.986 3.952 o
-13 7 10 16.962 17.548 0.603 10.686 o
-13 7 11 0.325 0.432 0.121 286.983 o
-13 7 12 0.822 0.644 0.151 183.386 o
-13 7 14 0.807 0.804 0.151 183.335 o
-13 7 15 4.895 5.229 0.312 42.032 o
-13 9 1 15.527 15.135 0.483 16.402 o
-13 9 2 0.586 0.463 0.101 412.472 o
-13 9 3 0.161 0.221 0.080 645.943 o
-13 9 4 4.640 4.636 0.191 108.625 o
-13 9 5 24.135 24.165 0.764 6.553 o
-13 9 6 15.300 15.547 0.533 13.667 o
-13 9 7 3.530 3.500 0.161 154.687 o
-13 9 8 2.080 1.881 0.131 239.458 o
-13 9 9 17.798 18.011 0.583 11.309 o
-13 9 10 8.626 8.608 0.342 33.784 o
-13 9 11 0.258 0.322 0.111 341.615 o
-13 9 12 0.319 0.362 0.131 244.585 o
-13 9 14 0.641 0.714 0.161 161.305 o
-13 11 1 7.775 7.633 0.322 38.337 o
-13 11 3 0.440 0.483 0.080 644.340 o
-13 11 4 2.287 2.323 0.151 179.940 o
-13 11 5 9.615 9.503 0.352 31.591 o
-13 11 6 5.543 5.541 0.231 74.227 o
-13 11 7 1.821 1.689 0.121 281.552 o
-13 11 8 1.188 1.056 0.111 338.454 o
-13 11 9 8.994 8.980 0.322 37.661 o
-13 11 10 3.771 3.821 0.181 122.666 o
-13 11 11 0.170 0.261 0.111 341.712 o
-13 13 1 3.386 3.268 0.171 138.196 o
-13 13 3 0.519 0.523 0.141 210.752 o
-13 13 4 0.990 0.835 0.141 210.153 o
-13 13 5 3.313 3.238 0.211 91.721 o
-13 13 6 1.634 1.629 0.131 241.239 o
-13 13 7 0.828 0.734 0.091 506.968 o
-13 13 8 0.596 0.503 0.101 412.389 o
-13 13 9 3.938 3.801 0.191 110.318 o
-13 13 10 1.436 1.297 0.111 336.880 o
-13 15 1 1.274 1.116 0.141 209.554 o
-13 15 3 0.387 0.412 0.151 183.704 o
-13 15 4 0.386 0.402 0.171 143.044 o
-13 15 5 1.000 0.835 0.141 210.140 o
-13 15 6 0.393 0.412 0.171 143.041 o
-12 0 1 10.815 11.243 0.563 12.741 o
-12 0 2 92.060 100.432 4.274 0.219 o
-12 0 3 3.728 5.732 0.231 75.647 o
-12 0 4 0.121 0.292 0.091 510.431 o
-12 0 5 17.663 17.427 0.704 7.978 o
-12 0 6 3.060 3.218 0.201 101.150 o
-12 0 7 293.992 297.715 12.711 0.025 o
-12 0 8 0.347 0.593 0.181 127.587 o
-12 0 9 192.591 196.891 10.328 0.038 o
-12 0 10 24.252 24.366 1.217 2.724 o
-12 0 11 1.355 1.388 0.211 93.423 o
-12 0 13 7.949 7.401 0.493 16.838 o
-12 0 14 2.709 2.705 0.282 52.306 o
-12 0 15 31.499 31.908 1.951 1.073 o
-12 0 16 6.086 6.195 0.453 20.083 o
-12 2 1 11.795 11.856 0.372 27.625 o
-12 2 2 62.594 66.602 2.112 0.864 o
-12 2 3 3.488 4.475 0.151 173.504 o
-12 2 4 0.037 0.171 0.070 843.972 o
-12 2 5 18.162 17.900 0.553 12.439 o
-12 2 6 2.792 3.158 0.151 177.665 o
-12 2 7 266.544 273.288 8.417 0.054 o
-12 2 9 175.528 179.343 6.687 0.088 o
-12 2 10 21.755 21.842 0.804 6.050 o
-12 2 11 1.300 1.327 0.151 182.544 o
-12 2 13 7.295 6.667 0.322 38.650 o
-12 2 14 2.478 2.494 0.201 101.956 o
-12 2 15 28.892 29.525 1.247 2.560 o
-12 2 16 5.526 5.662 0.332 37.011 o
-12 4 1 10.410 10.559 0.342 32.918 o
-12 4 2 24.072 27.504 0.724 7.171 o
-12 4 3 2.210 2.232 0.101 395.725 o
-12 4 5 14.118 14.762 0.432 20.298 o
-12 4 6 2.093 2.474 0.131 238.351 o
-12 4 7 203.038 205.147 6.537 0.090 o
-12 4 9 133.270 135.216 5.290 0.141 o
-12 4 10 15.931 15.929 0.603 10.790 o
-12 4 11 1.090 0.996 0.161 160.915 o
-12 4 13 5.656 5.038 0.282 50.981 o
-12 4 14 1.887 1.669 0.181 126.474 o
-12 4 15 22.318 21.953 1.096 3.353 o
-12 4 16 4.149 4.133 0.302 45.164 o
-12 6 1 6.490 6.758 0.251 62.218 o
-12 6 2 7.052 8.306 0.261 56.872 o
-12 6 3 0.739 0.694 0.080 641.425 o
-12 6 4 0.083 0.181 0.070 843.866 o
-12 6 5 7.543 7.914 0.261 56.659 o
-12 6 6 1.404 1.689 0.121 283.161 o
-12 6 7 132.356 131.686 4.385 0.201 o
-12 6 9 84.800 85.418 3.379 0.346 o
-12 6 10 9.580 9.513 0.392 25.771 o
-12 6 11 0.782 0.794 0.141 210.410 o
-12 6 13 3.734 3.369 0.241 70.342 o
-12 6 14 1.190 1.126 0.191 114.173 o
-12 6 15 14.569 14.612 0.804 6.271 o
-12 6 16 2.588 2.504 0.302 45.650 o
-12 8 1 3.582 3.671 0.161 154.340 o
-12 8 2 1.367 1.408 0.101 406.483 o
-12 8 4 0.077 0.231 0.091 510.520 o
-12 8 5 3.756 3.892 0.181 122.632 o
-12 8 6 0.926 1.056 0.101 410.059 o
-12 8 7 73.274 73.179 2.434 0.651 o
-12 8 8 0.314 0.362 0.101 413.185 o
-12 8 9 45.591 46.379 1.418 1.896 o
-12 8 10 4.638 4.676 0.221 82.085 o
-12 8 11 0.504 0.513 0.131 244.391 o
-12 8 13 2.127 1.830 0.161 159.212 o
-12 8 14 0.622 0.694 0.171 142.924 o
-12 8 15 8.091 8.276 0.563 12.937 o
-12 10 1 1.826 1.820 0.111 333.397 o
-12 10 5 1.766 1.840 0.131 240.541 o
-12 10 6 0.583 0.563 0.111 340.956 o
-12 10 7 34.568 34.774 1.046 3.470 o
-12 10 8 0.455 0.412 0.101 412.862 o
-12 10 9 20.933 21.279 0.714 7.592 o
-12 10 10 1.797 1.830 0.131 240.462 o
-12 10 11 0.293 0.312 0.111 341.584 o
-12 10 13 1.068 0.825 0.141 210.061 o
-12 12 1 0.809 0.714 0.111 340.256 o
-12 12 5 0.689 0.754 0.141 210.521 o
-12 12 6 0.331 0.352 0.080 645.191 o
-12 12 7 14.079 13.817 0.483 16.652 o
-12 12 8 0.407 0.362 0.091 509.726 o
-12 12 9 8.320 8.226 0.312 40.387 o
-12 12 10 0.561 0.573 0.101 412.388 o
-12 14 1 0.315 0.422 0.151 183.729 o
-12 14 2 0.154 0.372 0.161 161.532 o
-12 14 7 4.976 4.646 0.251 63.951 o
-12 14 9 2.915 2.765 0.171 139.476 o
-11 1 1 605.118 608.392 25.794 0.006 o
-11 1 2 0.559 0.302 0.070 840.548 o
-11 1 3 138.270 144.247 3.580 0.286 o
-11 1 4 28.277 30.159 0.764 6.321 o
-11 1 5 230.675 248.117 6.939 0.078 o
-11 1 6 150.267 160.135 4.747 0.169 o
-11 1 7 27.602 29.475 0.986 4.002 o
-11 1 8 38.119 42.578 1.378 2.047 o
-11 1 9 18.771 19.962 0.714 7.690 o
-11 1 11 7.223 7.251 0.332 36.375 o
-11 1 12 103.367 101.045 4.706 0.181 o
-11 1 13 0.706 0.583 0.141 210.583 o
-11 1 14 8.492 9.041 0.422 22.563 o
-11 1 16 1.177 1.669 0.191 114.048 o
-11 1 17 2.207 2.051 0.191 113.233 o
-11 3 1 536.351 545.772 18.091 0.012 o
-11 3 3 123.298 129.182 3.449 0.313 o
-11 3 4 14.910 14.853 0.402 22.931 o
-11 3 5 174.783 183.617 5.109 0.144 o
-11 3 6 123.498 128.800 4.133 0.226 o
-11 3 7 22.946 23.642 0.754 6.760 o
-11 3 8 32.888 35.277 1.167 2.853 o
-11 3 9 15.539 16.090 0.613 10.476 o
-11 3 11 6.166 5.953 0.312 41.563 o
-11 3 12 86.411 85.508 3.771 0.281 o
-11 3 13 0.426 0.493 0.141 210.821 o
-11 3 14 7.558 7.924 0.372 29.062 o
-11 3 16 0.991 1.438 0.171 142.525 o
-11 5 1 344.798 344.738 10.901 0.032 o
-11 5 3 85.261 86.343 2.705 0.523 o
-11 5 4 10.752 11.655 0.362 29.371 o
-11 5 5 115.157 117.587 3.540 0.304 o
-11 5 6 80.146 82.119 2.695 0.531 o
-11 5 7 16.627 17.146 0.553 12.594 o
-11 5 8 25.712 27.122 0.895 4.837 o
-11 5 9 10.256 10.569 0.432 21.237 o
-11 5 11 4.602 4.545 0.241 69.478 o
-11 5 12 60.501 59.774 2.112 0.872 o
-11 5 14 5.988 6.144 0.332 36.846 o
-11 5 16 0.700 0.895 0.181 127.442 o
-11 7 1 185.904 187.659 5.883 0.111 o
-11 7 2 0.846 0.523 0.080 641.233 o
-11 7 3 48.508 49.135 1.599 1.506 o
-11 7 4 8.830 9.594 0.342 33.577 o
-11 7 5 66.995 68.392 2.303 0.730 o
-11 7 6 42.945 43.584 1.327 2.162 o
-11 7 7 10.226 10.277 0.352 31.301 o
-11 7 8 17.454 18.202 0.583 11.326 o
-11 7 9 5.591 5.742 0.261 58.648 o
-11 7 11 3.007 2.906 0.191 112.049 o
-11 7 12 35.680 35.398 1.327 2.225 o
-11 7 14 4.206 4.234 0.261 59.741 o
-11 9 1 93.053 94.770 3.218 0.374 o
-11 9 2 0.832 0.513 0.111 340.455 o
-11 9 3 24.453 25.151 0.694 7.774 o
-11 9 4 5.746 5.802 0.231 73.921 o
-11 9 5 33.530 33.990 1.006 3.746 o
-11 9 6 19.811 20.082 0.603 10.435 o
-11 9 7 5.239 5.048 0.201 97.410 o
-11 9 8 9.980 10.479 0.382 26.883 o
-11 9 9 2.633 2.675 0.161 157.601 o
-11 9 11 1.710 1.629 0.161 159.936 o
-11 9 12 17.869 17.478 0.694 8.190 o
-11 9 14 2.606 2.645 0.292 48.814 o
-11 11 1 40.832 42.407 1.569 1.596 o
-11 11 2 0.590 0.442 0.080 643.546 o
-11 11 3 11.006 10.800 0.402 24.189 o
-11 11 4 3.375 3.349 0.171 138.139 o
-11 11 5 14.717 14.964 0.493 15.895 o
-11 11 6 7.678 7.844 0.312 40.712 o
-11 11 7 2.352 2.243 0.131 237.805 o
-11 11 8 4.975 5.280 0.211 89.010 o
-11 11 9 1.058 1.146 0.101 409.152 o
-11 11 11 0.850 0.724 0.101 411.133 o
-11 11 12 7.666 7.331 0.342 34.227 o
-11 13 1 15.312 15.627 0.644 9.587 o
-11 13 2 0.341 0.342 0.131 244.578 o
-11 13 3 4.444 4.465 0.352 33.269 o
-11 13 4 1.837 1.800 0.151 181.358 o
-11 13 5 5.712 5.712 0.261 58.587 o
-11 13 6 2.467 2.524 0.181 125.456 o
-11 13 7 0.972 0.986 0.171 142.681 o
-11 13 8 2.223 2.243 0.141 206.216 o
-11 13 9 0.359 0.352 0.080 645.071 o
-11 13 11 0.370 0.352 0.091 509.849 o
-11 15 1 4.992 4.877 0.352 33.153 o
-11 15 3 1.623 1.549 0.181 126.736 o
-11 15 4 0.871 0.915 0.181 127.370 o
-11 15 5 1.949 1.881 0.171 141.446 o
-11 15 6 0.670 0.623 0.151 183.500 o
-11 15 7 0.378 0.342 0.141 210.887 o
-11 15 8 0.897 0.815 0.161 161.125 o
-11 17 1 1.429 1.307 0.161 160.452 o
-11 17 3 0.542 0.553 0.141 210.725 o
-10 0 1 153.340 162.308 7.804 0.066 o
-10 0 2 46.599 39.360 1.891 1.114 o
-10 0 3 17.411 21.862 0.724 7.504 o
-10 0 4 14.502 16.563 0.664 9.055 o
-10 0 5 42.430 45.022 2.202 0.832 o
-10 0 6 274.633 297.554 15.135 0.018 o
-10 0 7 5.926 6.456 0.392 26.595 o
-10 0 8 6.662 6.225 0.412 24.047 o
-10 0 9 64.855 65.728 3.902 0.268 o
-10 0 10 1.628 1.639 0.231 77.825 o
-10 0 11 5.945 6.014 0.392 26.620 o
-10 0 12 2.869 3.409 0.332 37.684 o
-10 0 13 6.141 5.973 0.412 24.116 o
-10 0 14 4.571 5.058 0.392 26.830 o
-10 0 15 7.729 7.824 0.543 13.920 o
-10 0 16 29.082 28.932 1.720 1.378 o
-10 2 1 144.554 151.648 4.636 0.178 o
-10 2 2 86.398 79.243 2.253 0.730 o
-10 2 3 15.698 19.127 0.442 18.830 o
-10 2 4 15.743 17.458 0.483 16.230 o
-10 2 5 47.717 51.226 1.720 1.316 o
-10 2 6 238.610 252.160 8.588 0.053 o
-10 2 7 6.143 6.416 0.272 54.087 o
-10 2 8 6.116 5.642 0.261 58.369 o
-10 2 9 59.811 60.760 2.363 0.706 o
-10 2 10 1.736 1.770 0.161 159.812 o
-10 2 11 5.511 5.652 0.282 50.913 o
-10 2 12 2.693 3.077 0.201 101.544 o
-10 2 13 5.971 5.782 0.292 47.373 o
-10 2 14 4.284 4.706 0.292 48.150 o
-10 2 15 7.032 6.868 0.332 36.482 o
-10 2 16 26.602 26.528 1.247 2.581 o
-10 2 17 0.531 0.533 0.181 127.551 o
-10 4 1 107.574 107.984 3.419 0.328 o
-10 4 2 115.411 110.830 3.027 0.403 o
-10 4 3 12.736 14.572 0.412 22.422 o
-10 4 4 14.646 15.577 0.432 20.132 o
-10 4 5 38.908 41.462 1.267 2.387 o
-10 4 6 165.529 168.975 5.269 0.138 o
-10 4 7 6.223 6.627 0.292 47.100 o
-10 4 8 5.306 5.058 0.241 68.812 o
-10 4 9 46.457 47.797 1.669 1.398 o
-10 4 10 1.897 1.921 0.161 159.486 o
-10 4 11 4.238 4.234 0.231 75.823 o
-10 4 12 2.238 2.494 0.181 125.730 o
-10 4 13 5.368 5.189 0.282 51.069 o
-10 4 14 3.490 3.671 0.221 83.458 o
-10 4 15 5.298 5.269 0.282 51.081 o
-10 4 16 20.368 20.454 1.106 3.314 o
-10 6 1 62.763 60.056 2.122 0.861 o
-10 6 2 83.322 81.787 2.343 0.683 o
-10 6 3 9.446 9.885 0.292 44.689 o
-10 6 4 10.935 11.786 0.392 25.272 o
-10 6 5 19.274 20.012 0.563 11.865 o
-10 6 6 97.583 97.173 3.349 0.346 o
-10 6 7 5.703 5.923 0.231 73.904 o
-10 6 8 4.481 4.103 0.231 75.692 o
-10 6 9 30.596 30.792 1.046 3.541 o
-10 6 10 1.917 1.911 0.171 141.465 o
-10 6 11 2.656 2.574 0.171 140.038 o
-10 6 12 1.636 1.740 0.161 159.961 o
-10 6 13 4.349 4.244 0.251 64.414 o
-10 6 14 2.460 2.564 0.201 101.943 o
-10 6 15 3.313 3.339 0.221 83.702 o
-10 6 16 13.092 13.033 0.794 6.465 o
-10 8 1 32.225 31.768 0.965 4.071 o
-10 8 2 51.868 51.297 1.770 1.237 o
-10 8 3 6.219 6.175 0.211 86.827 o
-10 8 4 8.005 8.316 0.292 45.885 o
-10 8 5 8.852 9.191 0.322 37.675 o
-10 8 6 49.233 48.873 1.669 1.389 o
-10 8 7 4.733 5.008 0.221 81.840 o
-10 8 8 3.286 2.816 0.151 176.757 o
-10 8 9 17.587 17.779 0.674 8.662 o
-10 8 10 1.738 1.639 0.161 159.894 o
-10 8 11 1.419 1.458 0.171 142.187 o
-10 8 12 1.022 0.945 0.151 183.080 o
-10 8 13 3.158 2.946 0.211 91.961 o
-10 8 14 1.523 1.539 0.211 93.332 o
-10 8 15 1.724 1.689 0.181 126.601 o
-10 10 1 14.519 14.582 0.533 13.772 o
-10 10 2 28.357 29.103 0.955 4.231 o
-10 10 3 3.606 3.660 0.171 137.380 o
-10 10 4 5.350 5.229 0.211 88.585 o
-10 10 5 3.943 4.063 0.191 110.126 o
-10 10 6 21.353 21.118 0.674 8.433 o
-10 10 7 3.396 3.520 0.161 154.992 o
-10 10 8 2.074 1.579 0.121 280.699 o
-10 10 9 8.914 8.900 0.342 33.656 o
-10 10 10 1.345 1.317 0.121 283.991 o
-10 10 11 0.662 0.654 0.131 244.156 o
-10 10 12 0.534 0.442 0.131 244.396 o
-10 10 13 2.033 1.981 0.191 113.398 o
-10 10 14 0.837 1.056 0.181 127.355 o
-10 12 1 5.587 5.933 0.302 44.479 o
-10 12 2 12.666 12.952 0.553 13.029 o
-10 12 3 1.831 1.790 0.161 159.669 o
-10 12 4 2.950 2.886 0.171 139.316 o
-10 12 5 1.411 1.448 0.141 209.036 o
-10 12 6 8.026 7.733 0.332 36.068 o
-10 12 7 2.026 2.021 0.131 239.401 o
-10 12 8 1.155 0.855 0.091 504.253 o
-10 12 9 3.982 3.892 0.181 122.243 o
-10 12 10 0.859 0.754 0.101 411.035 o
-10 12 11 0.270 0.282 0.101 413.313 o
-10 14 1 1.885 1.911 0.171 141.501 o
-10 14 2 4.872 5.028 0.342 35.102 o
-10 14 3 0.832 1.056 0.161 161.087 o
-10 14 4 1.352 1.337 0.141 209.240 o
-10 14 5 0.398 0.442 0.131 244.506 o
-10 14 6 2.625 2.353 0.201 101.897 o
-10 14 7 1.007 1.006 0.141 210.023 o
-10 14 8 0.565 0.402 0.131 244.386 o
-10 14 9 1.583 1.549 0.161 160.143 o
-10 14 10 0.455 0.362 0.070 841.245 o
-10 16 1 0.579 0.523 0.141 210.710 o
-10 16 2 1.700 1.720 0.191 113.728 o
-10 16 3 0.345 0.432 0.171 143.050 o
-10 16 4 0.526 0.593 0.141 210.722 o
-10 16 6 0.752 0.634 0.131 244.059 o
-10 16 7 0.421 0.392 0.141 210.852 o
-9 1 1 122.482 107.340 3.751 0.272 o
-9 1 2 108.425 113.133 2.967 0.421 o
-9 1 3 1131.060 1220.900 33.407 0.003 o
-9 1 4 53.475 51.337 1.689 1.344 o
-9 1 5 85.457 91.954 3.389 0.343 o
-9 1 6 0.119 0.322 0.101 413.466 o
-9 1 7 106.655 112.509 4.193 0.224 o
-9 1 8 5.497 6.456 0.292 47.427 o
-9 1 9 10.382 10.388 0.412 23.235 o
-9 1 10 247.958 248.550 8.839 0.050 o
-9 1 11 5.471 5.732 0.282 50.913 o
-9 1 12 36.181 35.901 1.287 2.353 o
-9 1 13 2.616 2.735 0.191 112.550 o
-9 1 14 10.608 11.706 0.513 15.253 o
-9 1 15 2.593 2.605 0.201 101.823 o
-9 1 16 2.698 2.856 0.221 84.245 o
-9 1 17 1.598 1.901 0.211 93.226 o
-9 3 1 42.745 35.428 1.277 2.347 o
-9 3 2 102.251 103.479 2.776 0.482 o
-9 3 3 848.059 914.674 26.367 0.005 o
-9 3 4 54.841 54.384 1.760 1.239 o
-9 3 5 78.775 82.371 2.796 0.497 o
-9 3 7 89.469 89.933 3.479 0.325 o
-9 3 8 6.071 6.788 0.292 47.130 o
-9 3 9 9.675 9.704 0.392 25.735 o
-9 3 10 202.739 197.555 7.864 0.064 o
-9 3 11 4.393 4.445 0.251 64.337 o
-9 3 12 30.894 31.084 1.106 3.186 o
-9 3 13 2.358 2.403 0.181 125.648 o
-9 3 14 9.567 10.459 0.473 17.995 o
-9 3 15 2.283 2.293 0.191 113.067 o
-9 3 16 2.193 2.464 0.221 84.617 o
-9 3 17 1.276 1.408 0.181 127.026 o
-9 5 1 30.222 29.515 0.905 4.634 o
-9 5 2 66.171 66.421 1.941 1.002 o
-9 5 3 488.865 525.388 16.341 0.014 o
-9 5 4 48.539 47.294 1.589 1.527 o
-9 5 5 56.194 57.874 2.102 0.887 o
-9 5 7 70.005 69.599 2.856 0.486 o
-9 5 8 6.249 6.587 0.292 47.098 o
-9 5 9 8.475 8.347 0.352 32.055 o
-9 5 10 139.750 138.917 5.461 0.132 o
-9 5 11 2.753 2.836 0.181 124.917 o
-9 5 12 22.795 22.777 0.855 5.370 o
-9 5 13 1.943 1.941 0.191 113.481 o
-9 5 14 7.719 8.316 0.392 26.201 o
-9 5 15 1.768 1.730 0.181 126.549 o
-9 5 16 1.456 1.629 0.221 85.084 o
-9 7 1 23.972 24.618 0.744 6.878 o
-9 7 2 37.100 36.645 1.146 2.903 o
-9 7 3 248.492 256.303 8.095 0.059 o
-9 7 4 38.132 38.395 1.277 2.367 o
-9 7 5 34.175 34.744 1.046 3.475 o
-9 7 7 47.070 46.590 1.609 1.497 o
-9 7 8 5.665 5.903 0.272 54.471 o
-9 7 9 6.652 6.637 0.292 46.916 o
-9 7 10 81.116 80.279 3.439 0.336 o
-9 7 11 1.325 1.348 0.151 182.499 o
-9 7 12 14.537 14.340 0.573 12.019 o
-9 7 13 1.434 1.559 0.151 182.202 o
-9 7 14 5.534 5.994 0.332 36.971 o
-9 7 15 1.205 1.267 0.171 142.434 o
-9 7 16 0.795 0.835 0.161 161.184 o
-9 9 1 11.639 12.279 0.453 19.201 o
-9 9 2 20.442 19.921 0.563 11.773 o
-9 9 3 118.234 118.985 3.932 0.249 o
-9 9 4 27.353 27.494 0.825 5.579 o
-9 9 5 19.187 19.459 0.603 10.494 o
-9 9 7 25.702 25.171 0.784 6.189 o
-9 9 8 4.460 4.535 0.211 90.015 o
-9 9 9 4.499 4.525 0.231 75.521 o
-9 9 10 39.322 38.898 1.398 1.995 o
-9 9 11 0.483 0.603 0.131 244.369 o
-9 9 12 7.995 7.733 0.362 30.559 o
-9 9 13 0.923 0.714 0.161 161.140 o
-9 9 14 3.499 3.600 0.241 70.404 o
-9 9 15 0.724 0.553 0.161 161.304 o
-9 11 1 4.496 5.209 0.312 42.136 o
-9 11 2 9.920 9.372 0.422 22.344 o
-9 11 3 50.227 49.980 1.850 1.144 o
-9 11 4 17.108 17.156 0.644 9.475 o
-9 11 5 9.590 9.684 0.392 25.753 o
-9 11 7 12.017 11.746 0.402 23.899 o
-9 11 8 3.004 3.017 0.171 139.113 o
-9 11 9 2.629 2.665 0.141 204.341 o
-9 11 10 16.169 15.909 0.583 11.484 o
-9 11 12 3.825 3.429 0.221 83.299 o
-9 11 13 0.517 0.412 0.151 183.647 o
-9 13 1 1.548 1.750 0.161 160.064 o
-9 13 2 4.110 3.671 0.272 55.634 o
-9 13 3 18.599 18.453 0.835 5.740 o
-9 13 4 9.131 9.222 0.442 20.546 o
-9 13 5 4.216 4.344 0.261 59.712 o
-9 13 7 4.999 4.837 0.241 69.111 o
-9 13 8 1.731 1.700 0.191 113.714 o
-9 13 9 1.332 1.368 0.111 337.194 o
-9 13 10 5.728 5.259 0.241 68.419 o
-9 15 1 0.447 0.463 0.141 210.817 o
-9 15 2 1.498 1.257 0.161 160.406 o
-9 15 3 6.091 6.014 0.402 25.315 o
-9 15 4 4.165 4.043 0.241 69.909 o
-9 15 5 1.657 1.629 0.151 181.807 o
-9 15 7 1.862 1.710 0.171 141.638 o
-9 15 8 0.858 0.925 0.151 183.242 o
-9 15 9 0.583 0.704 0.151 183.530 o
-9 17 2 0.485 0.332 0.131 244.482 o
-9 17 3 1.792 1.579 0.181 126.591 o
-9 17 4 1.636 1.569 0.171 141.939 o
-8 0 1 98.036 103.700 5.129 0.154 o
-8 0 2 11.466 13.737 0.473 17.628 o
-8 0 3 163.424 170.906 6.657 0.089 o
-8 0 4 313.888 339.569 14.380 0.019 o
-8 0 5 35.956 38.988 2.313 0.764 o
-8 0 6 109.459 119.257 6.315 0.102 o
-8 0 7 152.104 161.925 8.166 0.061 o
-8 0 8 72.513 72.606 4.294 0.221 o
-8 0 9 22.061 22.445 1.126 3.182 o
-8 0 10 108.408 109.321 6.144 0.108 o
-8 0 11 19.023 19.529 1.056 3.640 o
-8 0 12 3.346 3.278 0.282 52.081 o
-8 0 13 2.580 2.353 0.272 56.290 o
-8 0 14 71.848 74.517 3.831 0.276 o
-8 0 15 3.052 3.399 0.322 40.030 o
-8 0 16 7.107 6.838 0.493 16.908 o
-8 2 1 67.270 68.181 2.232 0.773 o
-8 2 3 168.937 182.330 4.666 0.170 o
-8 2 4 268.479 288.513 9.453 0.043 o
-8 2 5 40.517 44.499 1.820 1.203 o
-8 2 6 99.360 107.853 4.626 0.187 o
-8 2 7 129.917 130.148 4.787 0.171 o
-8 2 8 65.974 66.160 2.755 0.523 o
-8 2 9 20.633 20.987 0.734 7.225 o
-8 2 10 99.463 101.568 4.093 0.237 o
-8 2 11 17.329 17.498 0.654 9.186 o
-8 2 12 3.021 2.886 0.191 112.046 o
-8 2 13 2.667 2.504 0.181 125.231 o
-8 2 14 65.867 68.302 2.595 0.585 o
-8 2 15 2.901 3.228 0.231 76.974 o
-8 2 16 6.592 6.185 0.332 36.690 o
-8 2 17 0.225 0.573 0.181 127.612 o
-8 4 1 37.946 37.852 1.408 1.977 o
-8 4 2 0.995 1.307 0.070 825.382 o
-8 4 3 131.708 138.183 3.751 0.266 o
-8 4 4 174.601 186.603 5.501 0.126 o
-8 4 5 39.904 39.601 1.428 1.913 o
-8 4 6 68.010 72.898 2.866 0.483 o
-8 4 7 87.746 88.082 3.419 0.337 o
-8 4 8 53.638 53.338 2.253 0.783 o
-8 4 9 17.219 17.438 0.644 9.463 o
-8 4 10 78.581 78.509 3.349 0.355 o
-8 4 11 13.496 13.586 0.533 13.893 o
-8 4 12 2.278 2.092 0.171 140.915 o
-8 4 13 2.866 2.745 0.201 101.538 o
-8 4 14 50.833 52.554 2.062 0.930 o
-8 4 15 2.469 2.745 0.231 77.304 o
-8 4 16 5.259 5.078 0.322 39.435 o
-8 4 17 0.211 0.422 0.151 183.762 o
-8 6 1 24.398 23.451 0.704 7.613 o
-8 6 2 1.245 1.076 0.070 822.304 o
-8 6 3 78.935 79.203 2.665 0.544 o
-8 6 4 97.283 100.261 2.997 0.423 o
-8 6 5 28.547 27.584 0.804 5.800 o
-8 6 6 35.431 36.514 1.378 2.074 o
-8 6 7 49.894 49.678 1.911 1.078 o
-8 6 8 40.325 40.356 1.418 1.935 o
-8 6 9 13.041 13.214 0.493 16.165 o
-8 6 10 54.227 54.746 2.021 0.959 o
-8 6 11 9.125 9.171 0.392 25.887 o
-8 6 12 1.462 1.257 0.151 182.376 o
-8 6 13 2.953 2.856 0.191 112.137 o
-8 6 14 33.177 34.563 1.388 2.059 o
-8 6 15 1.867 2.051 0.181 126.322 o
-8 6 16 3.612 3.379 0.231 76.526 o
-8 8 1 12.421 11.605 0.422 21.774 o
-8 8 2 2.920 2.504 0.111 322.860 o
-8 8 3 47.354 47.455 1.770 1.252 o
-8 8 4 49.878 49.728 1.830 1.168 o
-8 8 5 17.070 17.116 0.533 13.441 o
-8 8 6 16.345 16.613 0.523 14.011 o
-8 8 7 23.039 22.777 0.744 6.940 o
-8 8 8 26.197 25.483 0.875 5.051 o
-8 8 9 8.839 8.719 0.362 30.254 o
-8 8 10 32.229 32.472 1.146 2.964 o
-8 8 11 5.218 5.320 0.282 51.104 o
-8 8 12 0.784 0.553 0.141 210.526 o
-8 8 13 2.687 2.554 0.201 101.768 o
-8 8 14 18.452 19.087 0.845 5.607 o
-8 8 15 1.252 1.388 0.161 160.592 o
-8 10 1 4.902 4.626 0.282 51.363 o
-8 10 2 2.045 1.901 0.131 239.541 o
-8 10 3 27.000 26.689 0.895 4.817 o
-8 10 4 23.291 22.988 0.804 6.000 o
-8 10 5 8.869 9.292 0.352 31.826 o
-8 10 6 6.733 6.878 0.261 57.586 o
-8 10 7 8.605 8.226 0.292 45.600 o
-8 10 8 14.592 14.199 0.493 15.950 o
-8 10 9 5.315 5.189 0.251 63.578 o
-8 10 10 16.590 16.512 0.644 9.512 o
-8 10 11 2.541 2.574 0.171 140.211 o
-8 10 12 0.346 0.302 0.121 287.020 o
-8 10 13 2.080 1.911 0.161 159.223 o
-8 10 14 8.841 8.839 0.533 14.357 o
-8 12 1 1.677 1.529 0.141 208.434 o
-8 12 2 1.279 1.247 0.161 160.635 o
-8 12 3 13.290 13.325 0.593 11.352 o
-8 12 4 9.664 9.413 0.432 21.393 o
-8 12 5 4.008 4.234 0.261 59.828 o
-8 12 6 2.300 2.323 0.161 158.533 o
-8 12 7 2.658 2.393 0.211 92.514 o
-8 12 8 7.116 6.788 0.261 57.358 o
-8 12 9 2.833 2.745 0.141 203.522 o
-8 12 10 7.536 7.401 0.302 43.467 o
-8 12 11 1.090 1.026 0.141 209.897 o
-8 14 1 0.521 0.453 0.141 210.774 o
-8 14 2 0.697 0.674 0.151 183.465 o
-8 14 3 5.646 5.571 0.332 36.994 o
-8 14 4 3.539 3.439 0.221 83.507 o
-8 14 5 1.598 1.760 0.161 159.996 o
-8 14 6 0.645 0.634 0.131 244.187 o
-8 14 7 0.674 0.644 0.141 210.585 o
-8 14 8 3.018 2.886 0.221 84.044 o
-8 14 9 1.331 1.257 0.191 114.075 o
-8 14 10 3.046 2.765 0.191 112.084 o
-8 16 3 2.103 1.931 0.191 113.363 o
-8 16 4 1.148 1.066 0.121 284.938 o
-8 16 5 0.569 0.674 0.141 210.659 o
-7 1 1 3077.870 3298.860 129.816 0.000 o
-7 1 2 35.814 32.190 0.986 3.864 o
-7 1 3 191.587 208.073 6.929 0.081 o
-7 1 4 387.541 402.772 14.390 0.019 o
-7 1 5 106.469 117.960 4.173 0.226 o
-7 1 6 75.924 83.768 3.158 0.397 o
-7 1 7 3.666 3.681 0.191 110.773 o
-7 1 8 141.938 150.854 5.461 0.132 o
-7 1 9 32.133 33.859 1.126 3.058 o
-7 1 10 90.171 92.085 3.731 0.285 o
-7 1 11 60.865 62.218 2.444 0.662 o
-7 1 12 1.670 1.589 0.161 160.012 o
-7 1 13 0.405 0.483 0.151 183.682 o
-7 1 14 31.009 32.311 1.267 2.464 o
-7 1 15 4.954 5.229 0.292 47.849 o
-7 1 16 13.290 13.194 0.593 11.355 o
-7 1 17 8.892 8.779 0.442 20.598 o
-7 3 1 1785.350 1906.790 66.059 0.001 o
-7 3 2 20.849 22.988 0.613 9.971 o
-7 3 3 101.213 111.825 3.168 0.378 o
-7 3 4 421.908 435.656 14.803 0.018 o
-7 3 5 92.599 95.092 3.520 0.317 o
-7 3 6 57.319 63.214 2.574 0.601 o
-7 3 7 8.528 8.910 0.342 33.769 o
-7 3 8 117.795 124.013 4.646 0.182 o
-7 3 9 28.802 29.344 1.006 3.840 o
-7 3 10 74.695 75.009 3.188 0.392 o
-7 3 11 50.611 51.257 1.780 1.227 o
-7 3 12 1.396 1.126 0.161 160.579 o
-7 3 13 0.409 0.453 0.141 210.842 o
-7 3 14 26.492 27.514 1.016 3.808 o
-7 3 15 4.382 4.586 0.261 59.580 o
-7 3 16 11.257 11.132 0.513 15.225 o
-7 3 17 7.230 7.210 0.432 21.804 o
-7 5 1 820.908 896.563 32.009 0.004 o
-7 5 2 16.410 19.157 0.523 13.881 o
-7 5 3 44.366 49.195 1.599 1.519 o
-7 5 4 305.913 304.764 9.765 0.040 o
-7 5 5 70.340 68.805 2.665 0.554 o
-7 5 6 36.849 38.566 1.498 1.761 o
-7 5 7 9.907 9.734 0.382 26.978 o
-7 5 8 82.247 83.507 3.319 0.359 o
-7 5 9 22.457 22.647 0.794 6.167 o
-7 5 10 50.888 49.869 1.840 1.154 o
-7 5 11 35.052 34.785 1.197 2.706 o
-7 5 12 0.994 0.704 0.161 161.096 o
-7 5 13 0.375 0.463 0.161 161.467 o
-7 5 14 19.385 20.223 0.815 5.980 o
-7 5 15 3.408 3.459 0.221 83.594 o
-7 5 16 8.076 7.773 0.392 26.187 o
-7 7 1 376.240 399.283 15.064 0.017 o
-7 7 2 13.523 14.169 0.412 22.305 o
-7 7 3 21.381 23.250 0.714 7.540 o
-7 7 4 186.057 180.821 5.883 0.111 o
-7 7 5 44.656 42.789 1.508 1.703 o
-7 7 6 20.639 21.128 0.724 7.410 o
-7 7 7 8.451 8.125 0.332 35.874 o
-7 7 8 49.352 50.060 1.911 1.078 o
-7 7 9 15.497 15.637 0.573 11.916 o
-7 7 10 29.015 29.123 1.046 3.568 o
-7 7 11 20.266 20.133 0.744 7.068 o
-7 7 12 0.605 0.533 0.131 244.284 o
-7 7 13 0.303 0.372 0.141 210.914 o
-7 7 14 12.214 12.560 0.543 13.536 o
-7 7 15 2.338 2.464 0.191 112.943 o
-7 7 16 4.939 4.485 0.282 51.376 o
-7 9 1 169.513 173.892 6.889 0.083 o
-7 9 2 9.438 9.312 0.402 24.603 o
-7 9 3 10.956 11.203 0.453 19.355 o
-7 9 4 108.947 108.285 3.801 0.269 o
-7 9 5 23.693 22.908 0.704 7.653 o
-7 9 6 9.839 9.845 0.342 33.222 o
-7 9 7 6.747 6.788 0.261 57.606 o
-7 9 8 25.836 25.995 0.895 4.845 o
-7 9 9 9.621 9.815 0.402 24.529 o
-7 9 10 14.102 14.069 0.563 12.464 o
-7 9 11 9.852 9.775 0.422 22.324 o
-7 9 12 0.318 0.312 0.131 244.600 o
-7 9 14 6.675 6.758 0.342 34.545 o
-7 9 15 1.424 1.428 0.161 160.393 o
-7 11 1 69.106 70.112 3.409 0.347 o
-7 11 2 5.660 5.259 0.282 50.933 o
-7 11 3 5.508 5.642 0.292 47.578 o
-7 11 4 55.614 54.052 2.625 0.583 o
-7 11 5 10.752 10.760 0.483 17.160 o
-7 11 6 4.070 3.711 0.231 76.123 o
-7 11 7 4.377 4.364 0.191 109.255 o
-7 11 8 11.858 12.027 0.422 21.833 o
-7 11 9 5.279 5.239 0.272 54.820 o
-7 11 10 5.847 5.591 0.272 54.457 o
-7 11 11 4.083 3.912 0.211 90.724 o
-7 13 1 24.594 24.628 1.227 2.679 o
-7 13 2 2.884 2.635 0.221 84.201 o
-7 13 3 2.532 2.584 0.181 125.345 o
-7 13 4 24.162 24.215 0.996 4.001 o
-7 13 5 4.303 4.374 0.292 48.194 o
-7 13 6 1.457 1.307 0.151 182.347 o
-7 13 7 2.276 2.303 0.201 102.175 o
-7 13 8 4.810 4.726 0.261 59.340 o
-7 13 9 2.535 2.424 0.131 236.708 o
-7 13 10 2.076 1.790 0.131 239.626 o
-7 13 11 1.469 1.368 0.141 209.002 o
-7 15 1 7.678 7.673 0.553 13.432 o
-7 15 2 1.241 1.076 0.151 182.772 o
-7 15 3 1.034 0.915 0.121 285.422 o
-7 15 4 9.237 9.171 0.463 18.852 o
-7 15 5 1.572 1.589 0.151 181.973 o
-7 15 6 0.435 0.382 0.131 244.501 o
-7 15 7 1.008 1.016 0.161 160.972 o
-7 15 8 1.750 1.740 0.211 93.195 o
-7 15 9 1.072 1.116 0.181 127.228 o
-7 17 1 2.129 1.870 0.161 159.179 o
-7 17 3 0.374 0.362 0.121 286.970 o
-7 17 4 3.151 2.816 0.211 92.016 o
-7 17 5 0.536 0.563 0.121 286.678 o
-6 0 1 22.614 24.155 1.177 2.917 o
-6 0 2 385.538 426.314 16.392 0.015 o
-6 0 3 539.551 603.917 31.174 0.004 o
-6 0 4 1128.590 1321.100 69.800 0.001 o
-6 0 5 990.184 1130.200 60.528 0.001 o
-6 0 6 47.790 51.900 2.957 0.467 o
-6 0 7 36.760 35.227 1.840 1.192 o
-6 0 8 40.916 41.794 2.142 0.881 o
-6 0 9 84.594 86.996 4.877 0.171 o
-6 0 10 109.290 115.305 6.366 0.100 o
-6 0 11 49.783 52.805 2.705 0.553 o
-6 0 12 8.147 8.880 0.553 13.386 o
-6 0 13 18.111 18.141 0.975 4.259 o
-6 0 14 27.619 29.233 1.569 1.650 o
-6 0 15 4.751 4.797 0.392 26.825 o
-6 2 1 26.001 23.843 0.855 5.294 o
-6 2 2 267.399 275.380 7.160 0.072 o
-6 2 3 334.833 366.841 12.510 0.025 o
-6 2 4 838.954 950.284 36.092 0.003 o
-6 2 5 921.575 1021.210 39.058 0.003 o
-6 2 6 45.080 47.023 1.921 1.077 o
-6 2 7 35.264 35.348 1.287 2.360 o
-6 2 8 39.318 38.827 1.307 2.259 o
-6 2 9 76.100 77.765 3.188 0.391 o
-6 2 10 101.690 106.807 4.224 0.222 o
-6 2 11 44.465 46.671 1.569 1.578 o
-6 2 12 7.241 7.995 0.362 30.693 o
-6 2 13 17.020 17.216 0.694 8.224 o
-6 2 14 25.369 26.297 1.016 3.827 o
-6 2 15 4.528 4.646 0.272 55.282 o
-6 4 1 11.290 11.213 0.332 34.309 o
-6 4 2 138.963 142.990 4.143 0.220 o
-6 4 3 166.008 180.861 5.963 0.109 o
-6 4 4 459.843 496.054 18.966 0.011 o
-6 4 5 680.231 731.973 28.560 0.005 o
-6 4 6 37.432 37.701 1.498 1.760 o
-6 4 7 26.588 26.468 0.875 5.034 o
-6 4 8 31.674 31.436 1.056 3.463 o
-6 4 9 58.670 59.784 2.474 0.649 o
-6 4 10 81.156 82.220 3.409 0.342 o
-6 4 11 31.676 33.336 1.167 2.870 o
-6 4 12 5.281 5.833 0.292 47.626 o
-6 4 13 14.195 14.561 0.593 11.272 o
-6 4 14 19.777 20.525 0.835 5.699 o
-6 4 15 3.923 4.173 0.261 59.878 o
-6 4 17 0.249 0.453 0.171 143.068 o
-6 6 1 1.844 2.152 0.141 207.339 o
-6 6 2 79.853 80.983 2.544 0.592 o
-6 6 3 112.761 117.758 4.133 0.229 o
-6 6 4 239.827 244.175 8.075 0.059 o
-6 6 5 399.572 411.531 15.678 0.016 o
-6 6 6 26.523 26.398 0.885 4.931 o
-6 6 7 15.683 15.265 0.543 13.181 o
-6 6 8 20.991 20.243 0.704 7.811 o
-6 6 9 39.923 40.215 1.508 1.725 o
-6 6 10 55.246 56.446 2.253 0.780 o
-6 6 11 18.049 18.654 0.704 7.945 o
-6 6 12 3.241 3.500 0.211 91.673 o
-6 6 13 10.525 10.680 0.473 17.891 o
-6 6 14 13.192 13.737 0.593 11.346 o
-6 6 15 3.066 3.138 0.231 76.910 o
-6 8 1 0.330 0.945 0.211 93.730 o
-6 8 2 42.373 40.154 1.539 1.654 o
-6 8 3 67.531 67.447 2.444 0.654 o
-6 8 4 111.810 110.769 4.254 0.217 o
-6 8 5 207.884 206.595 7.019 0.079 o
-6 8 6 16.294 16.221 0.573 11.844 o
-6 8 7 8.852 8.226 0.322 37.854 o
-6 8 8 12.739 12.560 0.493 16.228 o
-6 8 9 22.985 22.979 0.825 5.737 o
-6 8 10 32.401 32.673 1.156 2.914 o
-6 8 11 8.266 8.417 0.392 26.102 o
-6 8 12 1.618 1.760 0.151 181.763 o
-6 8 13 6.894 6.878 0.332 36.518 o
-6 8 14 7.567 7.552 0.382 27.637 o
-6 8 15 2.124 2.132 0.171 141.086 o
-6 10 2 18.734 18.825 0.754 6.953 o
-6 10 3 33.866 33.095 1.488 1.803 o
-6 10 4 45.779 45.394 2.333 0.742 o
-6 10 5 95.507 93.754 3.992 0.249 o
-6 10 6 8.746 8.598 0.302 42.663 o
-6 10 7 4.774 4.344 0.191 108.644 o
-6 10 8 7.038 6.758 0.302 43.800 o
-6 10 9 11.267 11.042 0.432 21.059 o
-6 10 10 16.554 16.713 0.634 9.796 o
-6 10 11 3.027 2.906 0.181 124.506 o
-6 10 12 0.659 0.694 0.131 244.136 o
-6 10 13 3.983 3.852 0.221 83.010 o
-6 10 14 3.773 3.701 0.231 76.323 o
-6 12 2 6.720 6.828 0.332 36.572 o
-6 12 3 15.376 14.903 0.623 10.195 o
-6 12 4 16.805 16.291 0.714 7.811 o
-6 12 5 37.411 37.952 1.750 1.310 o
-6 12 6 4.079 3.912 0.302 45.209 o
-6 12 7 2.246 1.991 0.171 141.020 o
-6 12 8 3.359 3.148 0.151 176.051 o
-6 12 9 4.867 4.847 0.231 75.105 o
-6 12 10 7.456 7.391 0.322 38.483 o
-6 12 11 0.866 0.754 0.141 210.342 o
-6 12 12 0.229 0.302 0.131 244.647 o
-6 12 13 2.034 1.911 0.151 180.889 o
-6 14 2 1.988 1.951 0.181 126.257 o
-6 14 3 6.217 5.933 0.312 41.550 o
-6 14 4 5.457 5.259 0.322 39.364 o
-6 14 5 12.652 12.852 0.603 11.034 o
-6 14 6 1.659 1.629 0.161 160.001 o
-6 14 7 0.911 0.825 0.171 142.761 o
-6 14 8 1.379 1.348 0.171 142.267 o
-6 14 9 1.878 1.870 0.201 102.571 o
-6 14 10 3.004 2.584 0.161 156.943 o
-6 16 2 0.496 0.463 0.131 244.420 o
-6 16 3 2.203 1.911 0.171 141.126 o
-6 16 4 1.558 1.388 0.131 241.773 o
-6 16 5 3.786 3.610 0.261 60.050 o
-6 16 6 0.593 0.503 0.121 286.641 o
-6 16 8 0.491 0.523 0.161 161.416 o
-5 1 1 5693.960 5958.630 215.012 0.000 o
-5 1 2 70.888 78.650 2.162 0.808 o
-5 1 3 113.312 128.680 4.545 0.190 o
-5 1 4 202.059 221.639 8.095 0.060 o
-5 1 5 31.166 32.220 1.388 2.073 o
-5 1 6 52.370 54.776 2.202 0.818 o
-5 1 7 26.930 29.304 0.965 4.169 o
-5 1 8 244.905 255.579 9.795 0.041 o
-5 1 9 22.850 23.029 0.804 6.010 o
-5 1 10 22.962 24.477 0.845 5.470 o
-5 1 11 54.467 57.341 2.122 0.874 o
-5 1 13 15.822 16.482 0.674 8.753 o
-5 1 14 31.641 31.657 1.237 2.577 o
-5 1 15 6.497 6.396 0.322 38.932 o
-5 1 16 9.378 9.000 0.453 19.661 o
-5 1 17 1.950 1.478 0.221 84.936 o
-5 3 1 1750.480 1890.890 60.307 0.001 o
-5 3 2 31.596 34.624 1.046 3.507 o
-5 3 3 85.037 89.340 3.037 0.422 o
-5 3 4 85.176 90.727 3.258 0.370 o
-5 3 5 11.757 12.822 0.463 18.376 o
-5 3 6 40.786 40.778 1.710 1.359 o
-5 3 7 22.282 22.868 0.754 6.793 o
-5 3 8 193.427 194.528 6.697 0.087 o
-5 3 9 21.913 22.707 0.784 6.328 o
-5 3 10 18.530 19.750 0.724 7.502 o
-5 3 11 47.313 48.793 1.720 1.320 o
-5 3 13 13.389 13.677 0.543 13.415 o
-5 3 14 26.160 25.925 1.016 3.821 o
-5 3 15 5.045 4.867 0.272 55.012 o
-5 3 16 8.019 7.391 0.432 21.711 o
-5 3 17 1.631 1.418 0.241 71.528 o
-5 5 1 664.798 733.351 26.418 0.006 o
-5 5 2 11.253 11.323 0.412 23.006 o
-5 5 3 48.426 49.034 1.740 1.288 o
-5 5 4 74.609 79.907 2.936 0.456 o
-5 5 5 1.965 2.232 0.131 239.247 o
-5 5 6 26.316 27.142 0.975 4.112 o
-5 5 7 13.224 12.570 0.463 18.209 o
-5 5 8 122.998 121.409 4.515 0.192 o
-5 5 9 18.616 19.348 0.694 8.129 o
-5 5 10 13.052 13.717 0.523 14.432 o
-5 5 11 35.709 37.077 1.307 2.285 o
-5 5 13 9.786 9.875 0.432 21.347 o
-5 5 14 17.917 17.679 0.714 7.755 o
-5 5 15 2.998 2.615 0.221 84.139 o
-5 5 16 5.884 5.330 0.332 36.967 o
-5 5 17 1.143 0.955 0.191 114.231 o
-5 7 1 332.436 351.304 12.862 0.024 o
-5 7 2 3.231 2.323 0.151 177.606 o
-5 7 3 25.841 26.046 1.096 3.309 o
-5 7 4 65.241 64.320 2.343 0.711 o
-5 7 6 14.474 14.682 0.523 14.271 o
-5 7 7 5.834 5.702 0.241 68.162 o
-5 7 8 65.563 65.617 2.725 0.534 o
-5 7 9 14.152 14.481 0.543 13.330 o
-5 7 10 7.780 8.146 0.352 32.253 o
-5 7 11 23.372 23.692 0.885 5.013 o
-5 7 13 6.154 6.164 0.312 41.534 o
-5 7 14 10.229 10.207 0.463 18.698 o
-5 7 15 1.331 1.227 0.161 160.594 o
-5 7 16 3.724 3.520 0.231 76.412 o
-5 9 1 146.114 151.004 6.175 0.104 o
-5 9 2 0.595 0.322 0.111 341.160 o
-5 9 3 13.595 13.164 0.573 12.111 o
-5 9 4 36.433 34.493 1.378 2.074 o
-5 9 6 6.847 6.798 0.272 53.586 o
-5 9 7 2.018 2.041 0.131 239.394 o
-5 9 8 30.094 29.706 1.086 3.312 o
-5 9 9 9.691 9.724 0.392 25.730 o
-5 9 10 3.746 3.761 0.211 91.117 o
-5 9 11 13.246 13.264 0.543 13.440 o
-5 9 13 3.292 3.188 0.211 91.759 o
-5 9 14 4.916 4.616 0.261 59.314 o
-5 11 1 59.779 62.610 3.570 0.320 o
-5 11 3 6.174 5.923 0.292 47.265 o
-5 11 4 16.727 16.874 0.855 5.527 o
-5 11 6 2.712 2.584 0.181 125.126 o
-5 11 7 0.512 0.503 0.080 643.853 o
-5 11 8 11.915 11.645 0.453 19.207 o
-5 11 9 5.781 5.662 0.261 58.561 o
-5 11 10 1.503 1.388 0.121 283.345 o
-5 11 11 6.522 6.295 0.302 44.086 o
-5 11 13 1.508 1.438 0.151 182.182 o
-5 11 14 2.014 1.921 0.181 126.247 o
-5 13 1 22.887 23.532 1.267 2.527 o
-5 13 3 2.310 2.192 0.161 158.627 o
-5 13 4 7.011 7.452 0.372 29.208 o
-5 13 6 0.883 0.764 0.161 161.151 o
-5 13 8 4.093 3.852 0.221 82.921 o
-5 13 9 2.961 2.765 0.141 203.040 o
-5 13 10 0.517 0.362 0.091 509.365 o
-5 13 11 2.801 2.494 0.171 139.876 o
-5 15 1 7.739 7.753 0.493 16.840 o
-5 15 3 0.729 0.704 0.121 286.273 o
-5 15 4 2.646 2.625 0.181 125.183 o
-5 15 6 0.235 0.362 0.151 183.764 o
-5 15 8 1.246 1.066 0.171 142.477 o
-5 15 9 1.311 1.187 0.191 114.102 o
-5 17 1 2.300 1.870 0.211 92.887 o
-5 17 4 0.910 0.794 0.101 410.734 o
-4 0 1 2.587 2.444 0.121 275.877 o
-4 0 2 756.654 840.087 45.555 0.002 o
-4 0 3 50.520 54.636 2.906 0.481 o
-4 0 4 127.745 146.962 7.613 0.070 o
-4 0 5 417.250 451.112 27.675 0.005 o
-4 0 6 13.583 12.188 0.603 11.006 o
-4 0 7 45.623 46.379 2.705 0.557 o
-4 0 8 5.060 4.656 0.302 44.845 o
-4 0 9 32.564 34.191 1.579 1.612 o
-4 0 10 49.806 54.022 2.957 0.466 o
-4 0 11 97.226 96.459 5.551 0.132 o
-4 0 12 20.145 21.259 1.096 3.371 o
-4 0 13 9.968 10.066 0.644 9.876 o
-4 0 15 7.055 7.160 0.483 17.599 o
-4 0 16 3.957 3.701 0.322 39.855 o
-4 0 17 1.325 1.197 0.231 77.962 o
-4 2 1 6.028 6.486 0.201 95.061 o
-4 2 2 683.690 748.898 26.337 0.006 o
-4 2 3 30.064 35.840 1.428 1.960 o
-4 2 4 122.774 140.566 4.998 0.158 o
-4 2 5 303.982 330.880 12.751 0.024 o
-4 2 6 19.878 19.640 0.674 8.530 o
-4 2 7 41.450 42.075 2.011 0.994 o
-4 2 8 5.385 5.229 0.251 63.521 o
-4 2 9 26.780 27.705 0.935 4.436 o
-4 2 10 46.997 50.814 1.981 1.010 o
-4 2 11 87.563 86.775 3.671 0.295 o
-4 2 12 18.096 18.674 0.694 8.161 o
-4 2 13 9.364 9.413 0.432 21.432 o
-4 2 15 6.545 6.547 0.332 36.655 o
-4 2 16 3.670 3.510 0.221 83.385 o
-4 2 17 1.276 1.136 0.161 160.690 o
-4 4 1 10.764 10.720 0.352 31.072 o
-4 4 2 304.591 341.349 13.194 0.023 o
-4 4 3 22.205 25.442 1.096 3.341 o
-4 4 4 75.896 81.626 3.037 0.427 o
-4 4 5 164.344 178.066 6.617 0.090 o
-4 4 6 18.840 19.509 0.674 8.576 o
-4 4 7 32.074 33.538 1.267 2.455 o
-4 4 8 6.000 5.712 0.272 54.349 o
-4 4 9 17.609 18.423 0.654 9.153 o
-4 4 10 38.565 40.698 1.398 1.994 o
-4 4 11 64.766 64.269 2.665 0.558 o
-4 4 12 13.001 13.395 0.533 13.938 o
-4 4 13 7.707 7.763 0.412 23.827 o
-4 4 15 5.253 5.239 0.282 51.106 o
-4 4 16 2.930 2.655 0.201 101.522 o
-4 4 17 1.128 0.986 0.181 127.232 o
-4 6 1 1.544 1.901 0.121 282.242 o
-4 6 2 69.735 76.186 3.258 0.377 o
-4 6 3 20.531 22.073 0.845 5.542 o
-4 6 4 32.839 33.789 1.428 1.953 o
-4 6 5 91.164 96.932 3.771 0.278 o
-4 6 6 9.942 10.197 0.382 26.921 o
-4 6 7 21.789 21.782 0.744 6.996 o
-4 6 8 5.902 5.702 0.261 58.478 o
-4 6 9 10.538 10.730 0.422 22.151 o
-4 6 10 27.025 28.087 0.975 4.096 o
-4 6 11 39.756 39.109 1.327 2.193 o
-4 6 12 7.442 7.613 0.352 32.398 o
-4 6 13 5.544 5.481 0.282 50.935 o
-4 6 15 3.674 3.650 0.272 55.790 o
-4 6 16 2.016 1.780 0.191 113.487 o
-4 8 1 0.653 0.925 0.101 411.509 o
-4 8 2 15.935 17.940 0.714 7.812 o
-4 8 3 15.658 16.623 0.825 5.944 o
-4 8 4 15.137 15.386 0.583 11.564 o
-4 8 5 46.013 44.931 1.860 1.144 o
-4 8 6 6.279 6.235 0.261 58.087 o
-4 8 7 13.030 12.621 0.473 17.513 o
-4 8 8 4.639 4.566 0.211 89.805 o
-4 8 9 5.112 4.928 0.241 68.999 o
-4 8 10 16.393 17.096 0.644 9.508 o
-4 8 11 20.108 19.770 0.774 6.569 o
-4 8 12 3.438 3.459 0.211 91.525 o
-4 8 13 3.512 3.399 0.211 91.487 o
-4 8 15 2.245 2.031 0.181 125.967 o
-4 10 1 0.756 0.804 0.121 286.134 o
-4 10 2 4.284 4.244 0.221 82.596 o
-4 10 3 10.125 9.976 0.523 14.786 o
-4 10 4 7.376 7.170 0.422 22.812 o
-4 10 5 20.235 19.640 0.784 6.410 o
-4 10 6 4.366 4.204 0.241 69.738 o
-4 10 7 6.815 6.376 0.272 53.726 o
-4 10 8 2.964 2.826 0.161 156.773 o
-4 10 9 1.969 1.830 0.151 181.090 o
-4 10 10 8.678 9.010 0.372 28.723 o
-4 10 11 8.376 8.025 0.382 27.452 o
-4 10 12 1.292 1.348 0.141 209.335 o
-4 10 13 1.958 2.011 0.181 126.256 o
-4 12 1 0.567 0.503 0.111 341.046 o
-4 12 2 0.968 0.804 0.101 410.453 o
-4 12 3 5.795 5.551 0.282 50.812 o
-4 12 4 3.295 3.047 0.241 70.643 o
-4 12 5 7.915 7.462 0.463 19.048 o
-4 12 6 2.462 2.283 0.211 92.673 o
-4 12 7 3.083 2.856 0.201 101.297 o
-4 12 8 1.599 1.549 0.121 282.708 o
-4 12 9 0.638 0.563 0.101 412.176 o
-4 12 10 4.029 4.043 0.221 82.895 o
-4 12 11 2.893 2.645 0.171 139.610 o
-4 12 12 0.396 0.442 0.111 341.377 o
-4 12 13 0.957 0.875 0.121 285.647 o
-4 14 1 0.318 0.322 0.111 341.553 o
-4 14 3 2.870 2.635 0.171 139.655 o
-4 14 4 1.321 1.156 0.131 242.618 o
-4 14 5 2.730 2.363 0.211 92.477 o
-4 14 6 1.138 0.975 0.161 160.884 o
-4 14 7 1.204 1.046 0.161 160.797 o
-4 14 8 0.727 0.784 0.181 127.453 o
-4 14 10 1.667 1.418 0.121 282.696 o
-4 14 11 0.826 0.654 0.101 411.367 o
-4 16 3 1.220 0.945 0.101 408.818 o
-4 16 4 0.481 0.342 0.111 341.327 o
-4 16 5 0.827 0.644 0.111 340.301 o
-4 16 6 0.449 0.372 0.121 286.893 o
-4 16 7 0.408 0.372 0.151 183.704 o
-3 1 1 9.020 9.071 0.241 63.533 o
-3 1 2 433.079 445.592 18.021 0.012 o
-3 1 3 223.340 228.136 9.423 0.045 o
-3 1 4 20.894 19.117 0.794 6.248 o
-3 1 5 409.660 463.371 18.634 0.011 o
-3 1 6 510.086 568.881 22.979 0.008 o
-3 1 8 0.568 0.483 0.111 341.063 o
-3 1 9 76.118 78.539 3.288 0.368 o
-3 1 10 0.218 0.523 0.131 244.597 o
-3 1 11 18.041 17.960 0.674 8.640 o
-3 1 12 14.369 15.336 0.593 11.242 o
-3 1 13 6.422 6.516 0.312 41.391 o
-3 1 14 2.882 2.343 0.191 112.481 o
-3 1 15 10.055 10.147 0.453 19.524 o
-3 1 16 4.651 4.465 0.261 59.481 o
-3 1 17 0.730 0.523 0.151 183.494 o
-3 3 1 145.853 160.347 5.662 0.122 o
-3 3 2 326.663 347.915 14.612 0.019 o
-3 3 3 139.986 150.341 5.843 0.116 o
-3 3 4 9.059 8.890 0.352 31.829 o
-3 3 5 289.020 311.049 11.997 0.028 o
-3 3 6 375.523 396.608 15.215 0.017 o
-3 3 7 0.650 0.573 0.101 412.123 o
-3 3 8 0.305 0.241 0.101 413.293 o
-3 3 9 65.927 65.878 2.755 0.523 o
-3 3 10 0.261 0.442 0.121 287.031 o
-3 3 11 15.730 15.205 0.573 11.915 o
-3 3 12 11.411 11.766 0.483 17.048 o
-3 3 13 5.311 5.058 0.282 51.119 o
-3 3 14 2.644 2.172 0.181 125.455 o
-3 3 15 8.110 8.115 0.372 28.934 o
-3 3 16 3.899 3.711 0.231 76.237 o
-3 5 1 52.264 54.163 2.112 0.886 o
-3 5 2 123.043 127.614 5.189 0.147 o
-3 5 3 54.528 57.451 2.283 0.761 o
-3 5 4 2.855 3.751 0.171 138.730 o
-3 5 5 142.308 144.136 5.471 0.131 o
-3 5 6 240.901 246.539 9.081 0.048 o
-3 5 7 0.373 0.352 0.091 509.840 o
-3 5 9 52.609 52.232 2.192 0.826 o
-3 5 11 12.418 11.927 0.473 17.623 o
-3 5 12 7.146 7.351 0.332 36.383 o
-3 5 13 3.638 3.530 0.221 83.401 o
-3 5 14 2.172 1.720 0.171 141.279 o
-3 5 15 5.254 5.159 0.292 47.757 o
-3 5 16 2.765 2.524 0.191 112.507 o
-3 7 1 9.471 11.726 0.473 17.944 o
-3 7 2 44.136 45.937 2.605 0.600 o
-3 7 3 22.669 23.944 1.066 3.527 o
-3 7 4 0.933 0.965 0.080 638.096 o
-3 7 5 56.976 55.239 2.192 0.820 o
-3 7 6 134.036 136.292 5.300 0.140 o
-3 7 9 37.364 37.117 1.337 2.181 o
-3 7 11 8.739 8.427 0.372 28.773 o
-3 7 12 3.555 3.671 0.221 83.410 o
-3 7 13 2.075 2.031 0.161 159.138 o
-3 7 14 1.590 1.197 0.151 182.239 o
-3 7 15 2.726 2.504 0.201 101.757 o
-3 7 16 1.675 1.448 0.171 141.960 o
-3 9 1 5.149 6.054 0.282 50.981 o
-3 9 2 20.779 20.444 0.955 4.392 o
-3 9 3 11.961 11.937 0.613 10.737 o
-3 9 5 20.401 19.358 0.764 6.730 o
-3 9 6 62.678 62.087 2.554 0.607 o
-3 9 9 22.779 22.808 0.815 5.877 o
-3 9 11 5.332 4.988 0.261 59.001 o
-3 9 12 1.418 1.448 0.151 182.305 o
-3 9 13 0.994 1.006 0.151 183.077 o
-3 9 14 1.033 0.754 0.171 142.713 o
-3 9 15 1.127 1.096 0.161 160.842 o
-3 11 1 3.529 3.449 0.191 111.103 o
-3 11 2 9.711 9.181 0.412 23.440 o
-3 11 3 6.362 6.044 0.362 31.052 o
-3 11 5 5.936 5.501 0.362 31.173 o
-3 11 6 25.417 24.929 1.006 3.907 o
-3 11 9 12.117 12.148 0.473 17.645 o
-3 11 11 2.812 2.484 0.171 139.867 o
-3 11 12 0.449 0.513 0.131 244.439 o
-3 11 13 0.406 0.432 0.131 244.504 o
-3 11 14 0.585 0.453 0.141 210.730 o
-3 13 1 1.953 1.901 0.171 141.430 o
-3 13 2 3.918 3.570 0.201 100.078 o
-3 13 3 2.973 2.846 0.181 124.620 o
-3 13 5 1.239 0.865 0.181 127.206 o
-3 13 6 9.100 8.870 0.533 14.342 o
-3 13 9 5.673 5.380 0.261 58.704 o
-3 13 11 1.277 1.006 0.111 338.203 o
-3 15 1 0.936 0.895 0.131 243.606 o
-3 15 2 1.376 1.096 0.101 407.441 o
-3 15 3 1.187 1.036 0.111 338.499 o
-3 15 6 2.878 2.745 0.241 70.898 o
-3 15 9 2.329 1.991 0.181 125.901 o
-3 17 2 0.422 0.221 0.091 509.887 o
-3 17 3 0.401 0.221 0.080 645.170 o
-3 17 6 0.816 0.704 0.131 243.929 o
-2 0 1 373.636 375.258 23.572 0.007 o
-2 0 2 3220.830 3610.050 252.341 0.000 o
-2 0 3 10.765 11.716 0.674 8.988 o
-2 0 4 1.876 2.605 0.181 126.049 o
-2 0 5 31.788 30.380 1.800 1.256 o
-2 0 6 2.391 2.595 0.201 101.984 o
-2 0 7 21.618 22.435 1.056 3.607 o
-2 0 8 96.234 98.883 5.269 0.146 o
-2 0 9 366.087 367.666 19.218 0.011 o
-2 0 10 72.354 76.176 4.415 0.209 o
-2 0 11 3.112 2.383 0.231 77.083 o
-2 0 12 6.593 6.708 0.422 22.922 o
-2 0 14 3.835 3.932 0.342 35.358 o
-2 0 15 29.144 28.670 1.669 1.460 o
-2 0 16 23.030 22.999 2.021 1.012 o
-2 2 1 189.695 200.994 8.719 0.053 o
-2 2 2 1910.230 2138.850 103.790 0.000 o
-2 2 3 34.505 36.957 1.478 1.818 o
-2 2 4 2.380 2.997 0.141 204.610 o
-2 2 5 35.741 31.788 1.358 2.142 o
-2 2 6 0.047 0.282 0.091 510.524 o
-2 2 7 20.081 19.429 0.674 8.525 o
-2 2 8 91.099 89.350 3.419 0.336 o
-2 2 9 328.627 314.026 13.747 0.021 o
-2 2 10 66.070 68.372 2.856 0.488 o
-2 2 11 2.920 2.273 0.161 157.432 o
-2 2 12 6.269 6.356 0.302 44.168 o
-2 2 14 3.658 3.801 0.231 76.364 o
-2 2 15 26.767 26.760 1.136 3.080 o
-2 2 16 20.981 20.555 1.207 2.795 o
-2 4 1 60.917 77.986 4.083 0.245 o
-2 4 2 626.337 735.704 33.417 0.004 o
-2 4 3 93.963 92.175 3.560 0.310 o
-2 4 4 2.414 2.192 0.111 328.178 o
-2 4 5 37.119 33.960 1.418 1.962 o
-2 4 6 2.781 2.765 0.151 178.216 o
-2 4 7 17.220 16.482 0.593 11.042 o
-2 4 8 75.430 73.732 2.957 0.452 o
-2 4 9 238.950 236.311 8.608 0.053 o
-2 4 10 50.820 50.794 2.011 0.976 o
-2 4 11 2.350 1.780 0.151 180.387 o
-2 4 12 5.158 5.068 0.251 63.714 o
-2 4 14 3.126 3.047 0.201 101.168 o
-2 4 15 20.699 20.354 0.855 5.432 o
-2 4 16 15.882 15.155 0.975 4.293 o
-2 6 1 28.743 36.645 2.142 0.894 o
-2 6 2 218.059 247.967 12.611 0.026 o
-2 6 3 40.860 38.887 1.740 1.317 o
-2 6 4 1.735 1.156 0.091 497.205 o
-2 6 5 28.428 27.584 1.126 3.116 o
-2 6 6 1.707 1.569 0.121 282.254 o
-2 6 7 12.985 12.631 0.463 18.236 o
-2 6 8 54.200 52.473 2.202 0.817 o
-2 6 9 143.105 140.435 5.259 0.142 o
-2 6 10 33.212 33.467 1.156 2.904 o
-2 6 11 1.615 1.156 0.141 208.926 o
-2 6 12 3.588 3.389 0.211 91.425 o
-2 6 14 2.365 2.263 0.181 125.717 o
-2 6 15 13.523 13.013 0.644 9.709 o
-2 6 16 10.016 9.624 0.613 10.854 o
-2 8 1 16.448 18.634 0.774 6.671 o
-2 8 2 83.161 89.340 4.616 0.190 o
-2 8 3 26.080 27.242 1.438 1.961 o
-2 8 4 1.398 1.046 0.131 242.571 o
-2 8 5 16.832 15.698 0.593 11.090 o
-2 8 6 0.979 1.056 0.101 409.800 o
-2 8 7 7.628 7.512 0.312 40.793 o
-2 8 8 34.598 33.910 1.247 2.513 o
-2 8 9 71.880 70.464 2.987 0.445 o
-2 8 10 18.449 18.373 0.674 8.615 o
-2 8 11 0.989 0.543 0.141 210.324 o
-2 8 12 2.197 1.961 0.171 141.101 o
-2 8 14 1.598 1.529 0.171 141.994 o
-2 8 15 7.563 7.311 0.372 29.119 o
-2 10 1 9.363 9.865 0.412 23.441 o
-2 10 2 31.414 32.270 1.689 1.419 o
-2 10 3 19.725 19.911 0.965 4.319 o
-2 10 4 1.086 0.965 0.131 243.287 o
-2 10 5 7.944 7.452 0.392 26.234 o
-2 10 6 0.574 0.654 0.131 244.253 o
-2 10 7 3.542 3.510 0.181 123.296 o
-2 10 8 19.426 18.735 0.684 8.335 o
-2 10 9 30.475 29.948 1.096 3.251 o
-2 10 10 8.810 8.759 0.372 28.722 o
-2 10 11 0.549 0.523 0.141 210.731 o
-2 10 12 1.194 1.026 0.151 182.855 o
-2 10 14 0.963 0.794 0.171 142.741 o
-2 12 1 4.842 4.807 0.272 55.115 o
-2 12 2 10.948 10.992 0.473 17.832 o
-2 12 3 11.360 11.313 0.603 11.124 o
-2 12 4 0.715 0.714 0.141 210.516 o
-2 12 5 3.018 2.896 0.251 65.325 o
-2 12 7 1.383 1.337 0.161 160.485 o
-2 12 8 9.401 9.091 0.362 30.071 o
-2 12 9 10.922 10.579 0.432 21.142 o
-2 12 10 3.690 3.660 0.201 100.281 o
-2 12 11 0.276 0.322 0.121 287.065 o
-2 12 12 0.566 0.483 0.131 244.348 o
-2 14 1 2.198 2.051 0.171 141.043 o
-2 14 2 3.372 3.228 0.201 100.842 o
-2 14 3 5.334 5.400 0.292 47.686 o
-2 14 4 0.415 0.392 0.121 286.917 o
-2 14 5 0.983 0.975 0.141 210.073 o
-2 14 7 0.468 0.463 0.151 183.659 o
-2 14 8 3.921 3.650 0.251 64.779 o
-2 14 9 3.324 3.168 0.231 76.758 o
-2 14 10 1.384 1.217 0.121 284.024 o
-2 16 1 0.874 1.116 0.382 28.626 o
-2 16 2 0.913 0.684 0.121 285.945 o
-2 16 3 2.177 2.072 0.141 206.580 o
-2 16 4 0.217 0.241 0.101 413.406 o
-2 16 5 0.293 0.322 0.121 287.053 o
-2 16 8 1.418 1.317 0.171 142.247 o
-1 1 1 1200.200 1351.710 83.980 0.001 o
-1 1 2 1027.000 1060.780 48.149 0.002 o
-1 1 3 1631.900 1835.210 82.019 0.001 o
-1 1 4 300.773 350.128 14.149 0.020 o
-1 1 5 11.122 12.158 0.453 19.275 o
-1 1 6 994.759 1058.190 41.200 0.002 o
-1 1 7 11.419 11.706 0.432 20.987 o
-1 1 8 0.632 0.714 0.101 411.953 o
-1 1 9 166.721 171.308 6.114 0.105 o
-1 1 10 1.014 0.925 0.131 243.451 o
-1 1 11 7.446 7.814 0.342 34.221 o
-1 1 12 14.244 14.662 0.563 12.435 o
-1 1 13 67.976 68.121 2.695 0.544 o
-1 1 14 41.791 42.367 1.599 1.538 o
-1 1 15 1.301 1.327 0.171 142.337 o
-1 1 16 2.527 2.745 0.201 101.820 o
-1 3 1 573.062 645.228 37.148 0.003 o
-1 3 2 315.166 332.932 14.652 0.019 o
-1 3 3 609.799 673.214 28.067 0.005 o
-1 3 4 303.300 345.281 14.199 0.020 o
-1 3 5 8.975 8.819 0.322 37.699 o
-1 3 6 805.631 840.580 32.542 0.004 o
-1 3 7 13.463 13.335 0.503 15.517 o
-1 3 8 0.326 0.422 0.111 341.484 o
-1 3 9 142.569 141.109 5.229 0.143 o
-1 3 10 1.171 1.076 0.121 284.864 o
-1 3 11 6.140 6.255 0.292 47.211 o
-1 3 12 11.374 11.736 0.483 17.053 o
-1 3 13 56.083 55.410 2.041 0.938 o
-1 3 14 36.164 36.655 1.358 2.128 o
-1 3 15 1.090 1.187 0.171 142.543 o
-1 3 16 2.232 2.222 0.191 113.140 o
-1 5 1 208.230 235.135 13.385 0.023 o
-1 5 2 117.431 126.216 6.557 0.094 o
-1 5 3 212.305 225.491 9.654 0.043 o
-1 5 4 149.805 157.229 6.587 0.092 o
-1 5 5 10.300 9.915 0.352 31.333 o
-1 5 6 519.660 543.026 22.325 0.008 o
-1 5 7 9.811 9.352 0.362 29.935 o
-1 5 8 0.574 0.543 0.121 286.640 o
-1 5 9 104.052 105.118 4.063 0.239 o
-1 5 10 1.322 1.237 0.131 242.526 o
-1 5 11 4.535 4.495 0.231 75.505 o
-1 5 12 7.082 7.452 0.332 36.387 o
-1 5 13 38.559 38.184 1.428 1.922 o
-1 5 14 27.167 27.031 1.086 3.352 o
-1 5 15 0.760 0.885 0.151 183.341 o
-1 5 16 1.739 1.790 0.171 141.725 o
-1 7 1 90.258 91.642 5.179 0.152 o
-1 7 2 62.372 66.492 3.510 0.329 o
-1 7 3 82.602 78.962 3.771 0.282 o
-1 7 4 59.913 60.096 2.494 0.638 o
-1 7 5 10.148 9.785 0.352 31.397 o
-1 7 6 290.386 293.129 11.896 0.028 o
-1 7 7 5.981 6.014 0.251 62.859 o
-1 7 8 0.884 0.865 0.111 339.829 o
-1 7 9 64.998 64.290 2.685 0.550 o
-1 7 10 1.235 1.177 0.131 242.784 o
-1 7 11 2.880 2.776 0.181 124.791 o
-1 7 12 3.431 3.510 0.211 91.508 o
-1 7 13 22.188 21.792 0.865 5.274 o
-1 7 14 17.723 17.759 0.754 6.994 o
-1 7 15 0.447 0.684 0.141 210.746 o
-1 7 16 1.195 1.207 0.151 182.749 o
-1 9 1 45.716 46.228 2.605 0.599 o
-1 9 2 30.781 31.044 1.860 1.178 o
-1 9 3 29.751 29.445 1.599 1.585 o
-1 9 4 28.303 28.338 1.267 2.490 o
-1 9 5 7.724 7.592 0.342 34.177 o
-1 9 6 146.839 142.195 5.722 0.121 o
-1 9 7 3.964 4.113 0.201 99.712 o
-1 9 8 0.780 0.734 0.101 411.388 o
-1 9 9 35.015 35.036 1.257 2.469 o
-1 9 10 0.924 0.955 0.121 285.629 o
-1 9 11 1.496 1.438 0.141 208.885 o
-1 9 12 1.297 1.398 0.151 182.502 o
-1 9 13 10.724 10.740 0.493 16.500 o
-1 9 14 10.038 9.714 0.513 15.367 o
-1 9 15 0.228 0.493 0.161 161.504 o
-1 11 1 21.000 21.882 0.915 4.755 o
-1 11 2 14.175 13.697 0.684 8.609 o
-1 11 3 10.155 9.483 0.503 15.966 o
-1 11 4 12.664 12.761 0.674 8.919 o
-1 11 5 5.007 5.078 0.332 37.186 o
-1 11 6 65.602 64.410 2.755 0.524 o
-1 11 7 2.395 2.494 0.161 158.215 o
-1 11 8 0.567 0.493 0.101 412.485 o
-1 11 9 16.460 16.824 0.623 10.096 o
-1 11 10 0.588 0.583 0.111 340.928 o
-1 11 11 0.664 0.674 0.141 210.580 o
-1 11 12 0.372 0.513 0.131 244.500 o
-1 11 13 4.409 4.334 0.261 59.626 o
-1 11 14 4.948 4.897 0.312 42.061 o
-1 13 1 8.242 8.950 0.533 14.386 o
-1 13 2 5.911 5.692 0.282 50.730 o
-1 13 3 3.226 2.997 0.221 83.875 o
-1 13 4 4.840 5.048 0.342 35.106 o
-1 13 5 2.820 2.786 0.221 84.194 o
-1 13 6 25.657 25.171 1.267 2.511 o
-1 13 7 1.212 1.297 0.171 142.417 o
-1 13 8 0.363 0.442 0.131 244.531 o
-1 13 9 6.855 6.838 0.312 41.192 o
-1 13 10 0.330 0.372 0.101 413.149 o
-1 13 11 0.262 0.292 0.101 413.317 o
-1 15 1 2.885 3.479 0.402 25.710 o
-1 15 2 2.084 1.790 0.131 239.596 o
-1 15 3 0.886 0.764 0.111 339.974 o
-1 15 4 1.659 1.760 0.181 126.626 o
-1 15 5 1.371 1.408 0.161 160.460 o
-1 15 6 8.893 8.528 0.523 14.906 o
-1 15 7 0.522 0.553 0.161 161.398 o
-1 15 9 2.566 2.444 0.201 101.908 o
-1 17 1 0.922 1.036 0.342 35.752 o
-1 17 3 0.206 0.201 0.080 645.861 o
-1 17 4 0.522 0.553 0.101 412.524 o
-1 17 5 0.579 0.563 0.111 340.965 o
-1 17 6 2.764 2.494 0.211 92.410 o
0 0 1 250.781 230.197 16.462 0.015 o
0 0 2 22.684 26.689 1.659 1.490 o
0 0 3 416.190 420.994 23.471 0.007 o
0 0 4 28.919 40.919 2.253 0.808 o
0 0 5 43.997 42.377 2.474 0.664 o
0 0 6 90.825 96.741 4.928 0.167 o
0 0 7 163.734 170.262 8.628 0.054 o
0 0 8 59.732 57.562 3.419 0.348 o
0 0 9 1.460 1.016 0.191 114.071 o
0 0 10 81.567 83.648 4.777 0.178 o
0 0 11 52.573 51.106 2.554 0.617 o
0 0 12 35.607 36.414 1.800 1.245 o
0 0 13 5.727 5.994 0.412 24.158 o
0 0 14 1.879 2.112 0.261 60.867 o
0 0 15 28.970 29.133 1.659 1.477 o
0 0 16 8.931 8.176 0.543 13.855 o
0 0 17 5.942 5.652 0.442 21.023 o
0 2 1 141.372 133.959 7.703 0.068 o
0 2 2 11.987 9.352 0.513 15.238 o
0 2 3 136.435 140.375 5.621 0.125 o
0 2 4 30.644 33.568 1.378 2.101 o
0 2 5 42.566 43.564 1.780 1.253 o
0 2 6 77.818 79.786 3.067 0.419 o
0 2 7 136.154 139.580 5.048 0.154 o
0 2 8 56.441 55.390 2.484 0.647 o
0 2 9 1.570 1.116 0.121 283.582 o
0 2 10 74.734 75.814 3.087 0.416 o
0 2 11 48.581 47.817 1.619 1.474 o
0 2 12 33.326 33.457 1.146 2.950 o
0 2 13 5.137 5.450 0.312 41.937 o
0 2 14 1.821 1.901 0.171 141.577 o
0 2 15 26.802 27.283 1.126 3.131 o
0 2 16 8.017 7.673 0.382 27.549 o
0 2 17 5.430 5.269 0.302 44.639 o
0 4 1 45.581 45.706 3.409 0.354 o
0 4 2 2.736 2.313 0.141 204.566 o
0 4 3 43.917 50.734 2.192 0.836 o
0 4 4 30.518 28.228 1.227 2.635 o
0 4 5 35.040 36.263 1.488 1.794 o
0 4 6 52.194 50.804 2.072 0.921 o
0 4 7 82.089 82.783 3.158 0.395 o
0 4 8 45.081 45.605 1.931 1.067 o
0 4 9 1.053 0.593 0.131 243.660 o
0 4 10 57.487 56.808 2.454 0.661 o
0 4 11 39.274 38.747 1.337 2.166 o
0 4 12 27.838 27.755 0.986 4.010 o
0 4 13 3.696 3.761 0.221 83.271 o
0 4 14 1.663 1.740 0.161 159.926 o
0 4 15 21.252 21.148 0.895 4.963 o
0 4 16 5.803 5.491 0.302 44.481 o
0 4 17 4.148 3.821 0.261 59.857 o
0 6 0 2333.100 2582.000 201.708 0.000 o
0 6 1 23.900 26.005 1.901 1.140 o
0 6 2 0.565 0.583 0.101 412.362 o
0 6 3 61.968 63.978 2.735 0.533 o
0 6 4 25.806 23.190 1.036 3.699 o
0 6 5 24.905 24.105 0.986 4.070 o
0 6 6 28.345 26.709 1.016 3.791 o
0 6 7 39.372 39.752 1.689 1.395 o
0 6 8 30.433 31.104 1.096 3.245 o
0 6 10 37.408 36.544 1.257 2.449 o
0 6 11 28.198 27.594 0.975 4.083 o
0 6 12 20.856 20.605 0.774 6.539 o
0 6 13 2.141 2.212 0.181 125.981 o
0 6 14 1.409 1.488 0.161 160.376 o
0 6 15 14.496 14.612 0.694 8.347 o
0 6 16 3.383 3.178 0.231 76.722 o
0 8 0 1025.800 1065.080 61.765 0.001 o
0 8 1 16.703 17.699 0.945 4.544 o
0 8 3 47.918 44.901 2.112 0.897 o
0 8 4 16.946 15.859 0.644 9.511 o
0 8 5 15.468 14.873 0.543 13.213 o
0 8 6 12.223 11.726 0.432 20.862 o
0 8 7 15.997 16.221 0.573 11.864 o
0 8 8 18.475 18.292 0.654 9.117 o
0 8 10 20.856 20.414 0.744 7.046 o
0 8 11 17.668 17.397 0.664 8.914 o
0 8 12 13.657 13.345 0.553 12.950 o
0 8 13 1.014 1.046 0.141 209.986 o
0 8 14 1.076 1.167 0.141 209.817 o
0 8 15 8.559 8.638 0.463 18.940 o
0 10 0 432.625 444.676 30.289 0.004 o
0 10 1 11.323 11.012 0.593 11.500 o
0 10 3 24.416 24.407 1.237 2.638 o
0 10 4 8.767 8.608 0.453 19.745 o
0 10 5 8.388 8.347 0.382 27.420 o
0 10 6 4.250 4.193 0.201 99.318 o
0 10 7 5.478 5.712 0.261 58.721 o
0 10 8 9.995 9.885 0.412 23.340 o
0 10 10 10.089 9.845 0.412 23.328 o
0 10 11 9.655 9.905 0.442 20.444 o
0 10 12 7.758 7.532 0.362 30.632 o
0 10 13 0.400 0.422 0.131 244.512 o
0 10 14 0.727 0.784 0.141 210.470 o
0 12 0 172.195 173.862 11.042 0.034 o
0 12 1 6.743 6.718 0.322 38.812 o
0 12 3 10.826 11.384 0.593 11.513 o
0 12 4 3.776 3.862 0.261 60.003 o
0 12 5 4.024 4.314 0.292 48.284 o
0 12 6 1.241 1.277 0.161 160.657 o
0 12 7 1.500 1.529 0.131 241.740 o
0 12 8 4.677 4.425 0.221 82.165 o
0 12 10 4.300 4.073 0.211 90.426 o
0 12 11 4.652 4.586 0.272 55.243 o
0 12 12 3.844 3.640 0.231 76.296 o
0 14 0 61.739 63.797 7.180 0.081 o
0 14 1 3.402 3.831 0.583 12.253 o
0 14 3 4.242 4.334 0.292 48.218 o
0 14 4 1.446 1.559 0.161 160.296 o
0 14 5 1.726 1.820 0.181 126.546 o
0 14 6 0.310 0.362 0.141 210.913 o
0 14 7 0.307 0.362 0.151 183.742 o
0 14 8 1.899 1.840 0.181 126.389 o
0 14 10 1.639 1.398 0.121 282.838 o
0 14 11 1.980 1.941 0.161 159.351 o
0 16 1 1.452 1.559 0.292 49.061 o
0 16 3 1.456 1.398 0.121 283.489 o
0 16 4 0.517 0.593 0.121 286.683 o
0 16 5 0.665 0.754 0.131 244.092 o
0 16 8 0.674 0.543 0.151 183.524 o
1 1 0 125.289 132.400 9.795 0.043 o
1 1 1 821.517 888.327 52.584 0.001 o
1 1 2 7.018 10.026 0.503 16.162 o
1 1 3 276.430 297.031 12.047 0.027 o
1 1 4 1713.280 1758.110 82.813 0.001 o
1 1 5 568.823 582.950 23.853 0.007 o
1 1 6 337.440 350.369 12.942 0.023 o
1 1 7 3.209 3.630 0.171 138.188 o
1 1 8 38.508 38.807 1.629 1.498 o
1 1 9 74.275 78.278 3.188 0.391 o
1 1 10 53.682 53.026 2.202 0.818 o
1 1 11 108.934 110.377 4.485 0.197 o
1 1 12 0.488 0.734 0.161 161.373 o
1 1 13 4.787 4.646 0.261 59.371 o
1 1 14 10.257 10.227 0.442 20.350 o
1 1 15 8.899 8.578 0.422 22.540 o
1 1 16 1.501 1.197 0.161 160.435 o
1 1 17 13.265 12.440 1.086 3.499 o
1 3 0 5.494 7.542 0.332 36.796 o
1 3 1 76.559 80.611 4.324 0.217 o
1 3 2 43.272 41.039 1.679 1.400 o
1 3 3 162.231 167.124 6.828 0.085 o
1 3 4 856.396 915.469 34.996 0.003 o
1 3 5 556.632 559.217 21.752 0.008 o
1 3 6 286.559 298.610 11.273 0.031 o
1 3 7 2.149 2.132 0.171 141.055 o
1 3 8 39.041 38.676 1.569 1.608 o
1 3 9 64.781 67.739 2.826 0.499 o
1 3 10 40.514 40.577 1.418 1.934 o
1 3 11 91.376 91.210 3.731 0.285 o
1 3 12 0.390 0.613 0.131 244.446 o
1 3 13 4.013 3.731 0.231 76.155 o
1 3 14 9.047 8.950 0.422 22.495 o
1 3 15 7.572 7.251 0.352 32.409 o
1 3 16 1.476 1.167 0.161 160.477 o
1 3 17 11.189 10.881 0.714 8.025 o
1 5 0 3.558 3.962 0.181 122.904 o
1 5 1 55.695 56.727 2.273 0.766 o
1 5 2 14.068 10.750 0.432 20.646 o
1 5 3 51.523 52.212 2.273 0.773 o
1 5 4 396.308 428.174 17.830 0.013 o
1 5 5 359.085 357.871 14.099 0.020 o
1 5 6 206.686 206.052 7.743 0.065 o
1 5 7 1.060 1.086 0.101 409.304 o
1 5 8 29.879 29.455 1.056 3.494 o
1 5 9 46.825 48.119 1.941 1.052 o
1 5 10 23.928 23.733 0.835 5.580 o
1 5 11 64.408 64.631 2.755 0.524 o
1 5 12 0.233 1.669 0.503 16.541 o
1 5 13 2.831 2.534 0.181 125.009 o
1 5 14 7.094 6.989 0.362 30.825 o
1 5 15 5.498 5.410 0.292 47.624 o
1 5 16 1.376 1.197 0.161 160.563 o
1 5 17 7.970 7.934 0.553 13.415 o
1 7 0 4.152 3.862 0.221 82.868 o
1 7 1 70.807 68.322 2.896 0.473 o
1 7 2 2.767 2.112 0.141 204.786 o
1 7 3 12.456 12.701 0.493 16.249 o
1 7 4 191.851 199.174 7.844 0.064 o
1 7 5 197.709 195.704 7.351 0.073 o
1 7 6 133.718 129.665 5.008 0.157 o
1 7 7 0.599 0.563 0.101 412.294 o
1 7 8 18.280 17.991 0.634 9.680 o
1 7 9 28.486 29.495 1.046 3.572 o
1 7 10 10.895 10.529 0.432 21.150 o
1 7 11 38.399 39.400 1.428 1.920 o
1 7 12 0.110 0.463 0.161 161.532 o
1 7 13 1.693 1.478 0.171 141.927 o
1 7 14 4.912 4.948 0.272 55.054 o
1 7 15 3.422 3.389 0.211 91.568 o
1 7 16 1.169 1.016 0.161 160.840 o
1 9 0 1.472 1.438 0.141 208.930 o
1 9 1 45.020 44.197 1.971 1.027 o
1 9 2 1.376 1.187 0.111 337.404 o
1 9 3 2.556 2.413 0.171 140.307 o
1 9 4 84.197 83.628 3.449 0.333 o
1 9 5 108.475 108.074 4.485 0.197 o
1 9 6 78.820 76.468 3.057 0.422 o
1 9 7 0.454 0.473 0.101 412.795 o
1 9 8 9.882 9.765 0.392 25.690 o
1 9 9 15.057 15.607 0.593 11.196 o
1 9 10 3.605 3.530 0.211 91.349 o
1 9 11 19.524 20.163 0.774 6.579 o
1 9 13 0.865 0.664 0.131 243.888 o
1 9 14 2.970 2.946 0.211 92.104 o
1 9 15 1.838 1.820 0.191 113.600 o
1 11 1 21.815 22.295 1.106 3.297 o
1 11 2 0.760 0.774 0.121 286.154 o
1 11 3 0.290 0.282 0.121 287.070 o
1 11 4 33.019 33.698 1.579 1.612 o
1 11 5 53.135 51.850 2.222 0.805 o
1 11 6 41.163 40.406 1.518 1.699 o
1 11 7 0.327 0.422 0.091 509.869 o
1 11 8 4.539 4.566 0.221 82.227 o
1 11 9 6.945 7.371 0.322 38.650 o
1 11 10 0.792 0.764 0.111 340.234 o
1 11 11 8.534 8.980 0.402 24.778 o
1 11 13 0.381 0.312 0.121 286.986 o
1 11 14 1.567 1.549 0.161 160.162 o
1 13 1 9.224 9.503 0.613 10.882 o
1 13 2 0.339 0.261 0.101 413.226 o
1 13 4 11.495 11.605 0.644 9.805 o
1 13 5 22.331 22.315 1.116 3.237 o
1 13 6 18.787 18.272 0.845 5.609 o
1 13 8 1.770 1.710 0.121 281.718 o
1 13 9 2.837 2.906 0.171 139.488 o
1 13 11 3.241 3.329 0.221 83.755 o
1 15 1 3.396 3.620 0.442 21.242 o
1 15 4 3.527 3.510 0.292 48.522 o
1 15 5 8.265 8.005 0.483 17.485 o
1 15 6 7.522 7.271 0.473 18.302 o
1 15 8 0.617 0.634 0.131 244.218 o
1 15 9 1.055 0.975 0.161 160.951 o
1 17 1 1.109 1.860 0.543 14.175 o
1 17 4 0.965 0.915 0.121 285.582 o
1 17 5 2.727 2.584 0.231 77.222 o
1 17 6 2.658 2.313 0.211 92.540 o
2 0 1 0.008 0.714 0.091 510.271 o
2 0 2 50.842 51.568 2.695 0.557 o
2 0 3 44.665 44.398 2.403 0.702 o
2 0 4 198.104 228.689 11.565 0.030 o
2 0 5 399.989 446.909 25.784 0.006 o
2 0 6 107.009 110.709 5.541 0.132 o
2 0 7 63.445 62.801 3.540 0.324 o
2 0 8 2.323 2.011 0.191 113.152 o
2 0 9 157.180 157.531 8.025 0.063 o
2 0 10 22.644 23.160 1.146 3.070 o
2 0 11 83.492 85.066 4.907 0.169 o
2 0 12 45.932 45.545 2.253 0.794 o
2 0 13 7.379 7.381 0.533 14.466 o
2 0 14 7.139 6.848 0.463 19.134 o
2 0 15 8.445 8.387 0.573 12.480 o
2 0 16 3.132 2.786 0.282 52.199 o
2 0 17 4.283 4.928 0.412 24.335 o
2 2 0 4709.550 4844.090 254.895 0.000 o
2 2 1 18.215 16.392 0.734 7.368 o
2 2 2 60.984 62.339 2.343 0.716 o
2 2 3 66.383 66.703 2.454 0.650 o
2 2 4 150.207 168.281 6.366 0.098 o
2 2 5 313.151 345.452 13.827 0.021 o
2 2 6 124.385 128.147 4.435 0.198 o
2 2 7 53.138 50.633 2.142 0.864 o
2 2 8 2.315 1.830 0.131 238.717 o
2 2 9 146.674 140.737 5.269 0.141 o
2 2 10 20.892 21.138 0.794 6.224 o
2 2 11 77.665 75.794 3.308 0.364 o
2 2 12 42.850 42.679 1.468 1.798 o
2 2 13 6.493 6.345 0.322 38.940 o
2 2 14 6.258 5.983 0.322 39.059 o
2 2 15 7.846 7.824 0.382 27.565 o
2 2 16 2.906 2.765 0.201 101.495 o
2 2 17 3.964 4.736 0.292 48.241 o
2 4 0 1785.830 1954.270 90.928 0.000 o
2 4 1 11.948 10.981 0.473 17.727 o
2 4 2 25.766 27.474 1.217 2.707 o
2 4 3 45.642 46.912 1.981 1.015 o
2 4 4 67.283 69.820 2.574 0.593 o
2 4 5 196.251 196.841 7.562 0.069 o
2 4 6 110.915 105.912 3.872 0.260 o
2 4 7 30.247 29.787 1.156 2.942 o
2 4 8 1.528 1.126 0.121 283.706 o
2 4 9 113.770 112.449 4.385 0.205 o
2 4 10 17.285 17.397 0.654 9.190 o
2 4 11 62.551 61.544 2.504 0.631 o
2 4 12 34.873 34.845 1.227 2.585 o
2 4 13 4.475 4.475 0.261 59.563 o
2 4 14 4.162 3.831 0.221 82.872 o
2 4 15 6.329 6.295 0.372 29.424 o
2 4 16 2.330 2.162 0.191 113.083 o
2 4 17 3.152 3.681 0.292 48.592 o
2 6 0 565.707 627.559 29.998 0.004 o
2 6 1 0.007 0.241 0.060 1148.670 o
2 6 2 3.590 4.374 0.181 122.504 o
2 6 3 15.669 16.392 0.583 11.500 o
2 6 4 20.843 21.098 0.845 5.546 o
2 6 5 118.639 117.376 4.364 0.206 o
2 6 6 63.545 58.437 2.353 0.710 o
2 6 7 12.005 11.997 0.442 19.997 o
2 6 8 0.518 0.372 0.111 341.246 o
2 6 9 72.119 70.766 2.886 0.475 o
2 6 10 13.166 12.671 0.483 16.818 o
2 6 11 43.829 43.523 1.549 1.624 o
2 6 12 24.808 24.628 0.905 4.775 o
2 6 13 2.426 2.343 0.181 125.606 o
2 6 14 2.046 1.750 0.161 159.394 o
2 6 15 4.462 4.324 0.261 59.604 o
2 6 16 1.625 1.689 0.191 113.785 o
2 8 0 233.729 254.855 12.329 0.027 o
2 8 1 1.511 1.116 0.111 336.949 o
2 8 2 0.527 0.835 0.101 412.097 o
2 8 3 7.393 7.200 0.272 53.140 o
2 8 4 5.843 5.732 0.231 73.863 o
2 8 5 63.878 62.861 2.554 0.606 o
2 8 6 32.505 30.822 1.217 2.655 o
2 8 7 3.485 3.329 0.181 123.528 o
2 8 9 39.246 38.556 1.398 1.996 o
2 8 10 8.840 8.618 0.362 30.266 o
2 8 11 26.904 26.971 1.006 3.878 o
2 8 12 15.410 15.436 0.634 9.877 o
2 8 13 1.011 0.905 0.141 210.082 o
2 8 14 0.708 0.553 0.141 210.595 o
2 8 15 2.755 2.715 0.221 84.252 o
2 10 0 110.531 110.991 4.837 0.170 o
2 10 1 2.011 1.488 0.131 240.326 o
2 10 2 0.164 0.231 0.091 510.413 o
2 10 3 4.438 4.093 0.231 75.728 o
2 10 4 1.488 1.398 0.141 208.939 o
2 10 5 30.621 31.637 1.197 2.750 o
2 10 6 15.213 15.205 0.553 12.775 o
2 10 7 0.643 0.583 0.111 340.812 o
2 10 9 18.522 18.584 0.724 7.520 o
2 10 10 5.169 5.219 0.272 54.876 o
2 10 11 14.514 14.692 0.593 11.251 o
2 10 12 8.372 8.608 0.412 23.680 o
2 10 13 0.318 0.372 0.151 183.736 o
2 12 0 48.351 50.915 2.574 0.610 o
2 12 1 1.684 2.222 0.322 40.265 o
2 12 3 2.226 1.931 0.161 158.980 o
2 12 4 0.255 0.352 0.121 287.070 o
2 12 5 13.401 13.978 0.613 10.630 o
2 12 6 5.886 6.275 0.352 32.871 o
2 12 9 7.485 7.492 0.322 38.457 o
2 12 10 2.648 2.584 0.181 125.205 o
2 12 11 6.891 6.979 0.342 34.467 o
2 12 12 3.998 3.952 0.241 70.034 o
2 14 0 18.833 20.434 1.458 1.935 o
2 14 1 1.067 1.146 0.231 78.023 o
2 14 3 0.901 0.764 0.121 285.886 o
2 14 5 5.245 5.712 0.362 31.267 o
2 14 6 1.929 1.961 0.181 126.307 o
2 14 9 2.613 2.413 0.161 157.888 o
2 14 10 1.181 1.006 0.121 284.932 o
2 14 11 2.892 2.685 0.181 124.835 o
2 16 0 6.576 7.552 0.885 5.311 o
2 16 3 0.302 0.302 0.101 413.253 o
2 16 5 1.814 1.891 0.181 126.441 o
2 16 6 0.563 0.613 0.151 183.569 o
3 1 0 145.512 151.437 6.205 0.103 o
3 1 1 3203.320 3128.470 168.532 0.000 o
3 1 2 2460.250 2459.040 119.046 0.000 o
3 1 3 839.515 831.449 31.627 0.004 o
3 1 4 55.322 52.675 2.072 0.916 o
3 1 5 234.072 219.216 8.025 0.060 o
3 1 6 190.324 203.106 10.066 0.040 o
3 1 8 91.221 92.537 3.550 0.313 o
3 1 9 2.679 3.087 0.171 139.598 o
3 1 10 1.345 1.207 0.131 242.509 o
3 1 11 83.622 83.839 3.671 0.296 o
3 1 12 4.624 4.445 0.241 69.497 o
3 1 13 8.340 7.683 0.352 32.172 o
3 1 14 1.074 0.794 0.151 183.102 o
3 1 15 17.291 17.267 0.774 6.667 o
3 1 16 0.902 0.986 0.151 183.175 o
3 1 17 22.588 21.470 1.388 2.121 o
3 3 0 55.407 53.006 1.891 1.086 o
3 3 1 1159.250 1148.420 46.450 0.002 o
3 3 2 566.778 585.836 23.049 0.007 o
3 3 3 420.734 415.192 16.824 0.014 o
3 3 4 15.100 16.663 0.563 12.309 o
3 3 5 126.073 121.298 4.304 0.210 o
3 3 6 154.287 154.604 5.732 0.119 o
3 3 8 68.038 68.473 2.765 0.518 o
3 3 9 2.112 2.162 0.161 158.977 o
3 3 10 0.835 0.613 0.141 210.448 o
3 3 11 70.663 70.001 3.017 0.437 o
3 3 12 4.050 3.781 0.231 76.112 o
3 3 13 6.718 6.305 0.312 41.328 o
3 3 14 0.868 0.714 0.151 183.322 o
3 3 15 14.726 13.888 0.654 9.365 o
3 3 16 0.866 1.016 0.151 183.194 o
3 3 17 19.041 18.705 1.217 2.763 o
3 5 0 19.984 16.724 0.644 9.349 o
3 5 1 320.858 353.205 14.974 0.018 o
3 5 2 232.817 244.688 10.147 0.039 o
3 5 3 213.147 215.093 8.799 0.051 o
3 5 4 1.511 1.559 0.111 335.874 o
3 5 5 79.957 78.620 2.997 0.437 o
3 5 6 118.287 116.310 4.264 0.215 o
3 5 7 0.481 0.382 0.101 412.837 o
3 5 8 40.998 40.527 1.669 1.422 o
3 5 9 1.494 1.388 0.151 182.239 o
3 5 10 0.302 0.402 0.141 210.908 o
3 5 11 49.287 49.044 1.790 1.220 o
3 5 12 3.080 2.967 0.191 111.934 o
3 5 13 4.452 4.063 0.231 75.729 o
3 5 14 0.547 0.553 0.151 183.595 o
3 5 15 10.706 10.217 0.483 17.190 o
3 5 16 0.787 0.835 0.171 142.821 o
3 7 0 7.931 6.466 0.322 38.479 o
3 7 1 95.325 96.751 3.258 0.365 o
3 7 2 141.847 136.051 6.185 0.104 o
3 7 3 117.070 114.410 4.324 0.210 o
3 7 5 54.881 53.238 2.212 0.809 o
3 7 6 81.743 79.997 3.087 0.412 o
3 7 7 0.599 0.543 0.101 412.322 o
3 7 8 20.671 19.972 0.704 7.828 o
3 7 9 0.930 0.815 0.131 243.679 o
3 7 11 28.890 28.942 1.096 3.270 o
3 7 12 2.022 1.891 0.171 141.355 o
3 7 13 2.432 2.313 0.201 102.059 o
3 7 15 6.663 6.376 0.342 34.593 o
3 7 16 0.654 0.724 0.151 183.477 o
3 9 0 2.444 2.021 0.151 179.925 o
3 9 1 27.811 27.494 1.217 2.695 o
3 9 2 64.192 61.323 2.373 0.697 o
3 9 3 58.608 55.812 2.343 0.721 o
3 9 5 31.712 31.345 1.217 2.659 o
3 9 6 47.988 46.530 1.991 1.002 o
3 9 7 0.636 0.573 0.101 412.165 o
3 9 8 8.709 8.498 0.352 31.974 o
3 9 9 0.492 0.563 0.121 286.735 o
3 9 11 14.632 15.114 0.644 9.625 o
3 9 12 1.149 1.177 0.151 182.820 o
3 9 13 1.091 1.096 0.151 182.930 o
3 9 15 3.562 3.429 0.251 64.994 o
3 11 0 0.512 0.392 0.101 412.753 o
3 11 1 7.229 6.808 0.362 30.816 o
3 11 2 25.836 26.106 0.986 4.046 o
3 11 3 26.144 25.774 0.996 3.968 o
3 11 5 16.448 16.794 0.593 11.080 o
3 11 6 24.362 24.175 0.845 5.443 o
3 11 7 0.483 0.432 0.091 509.358 o
3 11 8 3.076 2.866 0.171 139.119 o
3 11 9 0.231 0.312 0.101 413.346 o
3 11 10 0.101 0.312 0.131 244.694 o
3 11 11 6.421 6.456 0.332 36.699 o
3 11 12 0.573 0.654 0.141 210.664 o
3 11 13 0.410 0.453 0.131 244.493 o
3 13 1 1.479 0.975 0.312 42.968 o
3 13 2 9.830 10.177 0.473 17.984 o
3 13 3 10.318 10.086 0.493 16.562 o
3 13 5 7.712 7.804 0.422 22.737 o
3 13 6 10.854 10.851 0.513 15.267 o
3 13 7 0.258 0.231 0.080 645.673 o
3 13 8 0.902 0.804 0.111 339.867 o
3 13 10 0.130 0.272 0.111 341.735 o
3 13 11 2.457 2.393 0.171 140.465 o
3 15 2 3.316 3.399 0.282 52.073 o
3 15 3 3.563 3.449 0.261 60.168 o
3 15 5 3.146 2.967 0.241 70.731 o
3 15 6 4.263 4.083 0.272 55.500 o
3 17 2 0.992 1.167 0.302 45.904 o
3 17 3 1.083 0.965 0.111 339.014 o
3 17 5 1.116 0.915 0.151 182.999 o
3 17 6 1.490 1.126 0.171 142.266 o
4 0 0 345.547 356.212 24.698 0.007 o
4 0 1 159.640 166.199 9.081 0.049 o
4 0 2 81.783 101.196 5.300 0.145 o
4 0 3 596.726 595.701 32.411 0.004 o
4 0 4 304.544 326.053 17.277 0.014 o
4 0 5 1346.170 1421.580 74.859 0.001 o
4 0 6 8.706 9.423 0.634 10.231 o
4 0 7 84.227 88.555 4.716 0.182 o
4 0 8 29.745 29.837 1.418 1.999 o
4 0 9 14.661 14.732 0.764 6.923 o
4 0 10 2.462 2.504 0.231 77.362 o
4 0 11 151.933 148.058 8.316 0.059 o
4 0 12 4.731 4.877 0.352 33.195 o
4 0 13 12.086 11.615 0.714 7.997 o
4 0 14 0.788 0.684 0.201 103.265 o
4 0 15 1.770 2.021 0.261 60.899 o
4 0 16 7.025 7.170 0.513 15.626 o
4 2 0 80.252 69.659 2.524 0.605 o
4 2 1 82.102 91.180 3.540 0.317 o
4 2 2 18.827 24.396 1.026 3.831 o
4 2 3 269.518 262.970 10.197 0.038 o
4 2 4 278.864 288.000 10.539 0.035 o
4 2 5 1162.070 1206.960 45.454 0.002 o
4 2 6 4.434 4.716 0.201 98.752 o
4 2 7 81.774 81.737 3.127 0.402 o
4 2 8 27.372 28.308 0.935 4.422 o
4 2 9 13.361 12.852 0.493 16.151 o
4 2 10 2.026 2.122 0.161 159.144 o
4 2 11 139.537 134.945 5.491 0.131 o
4 2 12 4.045 4.173 0.231 75.981 o
4 2 13 11.174 11.032 0.463 18.550 o
4 2 14 0.676 0.603 0.161 161.316 o
4 2 15 1.626 1.740 0.181 126.660 o
4 2 16 6.492 6.335 0.352 32.745 o
4 4 0 5.245 5.119 0.191 107.189 o
4 4 1 22.721 24.105 1.056 3.591 o
4 4 3 99.371 101.658 3.650 0.293 o
4 4 4 176.571 168.854 6.426 0.095 o
4 4 5 766.470 775.446 29.998 0.004 o
4 4 6 1.872 2.243 0.131 239.550 o
4 4 7 63.361 62.107 2.514 0.625 o
4 4 8 20.871 21.812 0.754 6.851 o
4 4 9 10.019 9.765 0.412 23.346 o
4 4 10 1.283 1.448 0.131 242.373 o
4 4 11 107.276 104.354 4.314 0.213 o
4 4 12 2.591 2.765 0.191 112.561 o
4 4 13 8.859 8.638 0.382 27.302 o
4 4 14 0.432 0.453 0.141 210.829 o
4 4 15 1.262 1.468 0.191 114.056 o
4 4 16 5.141 5.068 0.282 51.185 o
4 6 0 5.803 6.014 0.241 68.062 o
4 6 1 6.054 6.567 0.221 79.602 o
4 6 2 2.127 1.991 0.111 330.931 o
4 6 3 85.599 83.286 3.097 0.408 o
4 6 4 81.241 76.679 2.926 0.457 o
4 6 5 425.530 423.518 16.140 0.015 o
4 6 6 1.879 1.981 0.171 141.468 o
4 6 7 37.697 37.218 1.398 2.006 o
4 6 8 13.285 13.254 0.483 16.773 o
4 6 9 6.431 6.144 0.272 54.004 o
4 6 10 0.648 0.724 0.141 210.572 o
4 6 11 69.036 67.799 2.886 0.477 o
4 6 12 1.238 1.257 0.151 182.667 o
4 6 13 6.047 5.792 0.332 36.874 o
4 6 15 0.835 0.845 0.161 161.155 o
4 6 16 3.508 3.510 0.241 70.423 o
4 8 0 2.486 2.564 0.181 125.410 o
4 8 1 1.561 1.840 0.091 495.248 o
4 8 2 3.103 2.826 0.141 202.422 o
4 8 3 55.684 52.111 2.062 0.924 o
4 8 4 33.367 31.285 1.337 2.215 o
4 8 5 214.404 209.089 7.995 0.061 o
4 8 6 1.314 1.408 0.161 160.519 o
4 8 7 20.103 20.283 0.704 7.843 o
4 8 8 7.376 7.150 0.302 43.585 o
4 8 9 3.801 3.530 0.201 100.231 o
4 8 10 0.198 0.372 0.121 287.101 o
4 8 11 37.826 37.882 1.408 1.978 o
4 8 12 0.392 0.473 0.131 244.499 o
4 8 13 3.555 3.469 0.231 76.533 o
4 8 15 0.482 0.553 0.171 142.997 o
4 10 1 0.390 0.382 0.070 841.709 o
4 10 2 2.298 2.172 0.111 329.101 o
4 10 3 26.644 25.472 0.895 4.835 o
4 10 4 11.835 11.354 0.453 19.236 o
4 10 5 97.105 95.444 3.831 0.269 o
4 10 6 0.599 0.744 0.111 340.733 o
4 10 7 9.627 9.946 0.402 24.517 o
4 10 8 3.602 3.490 0.201 100.469 o
4 10 9 2.052 1.820 0.151 180.941 o
4 10 11 17.867 17.950 0.734 7.355 o
4 10 13 1.800 1.669 0.171 141.725 o
4 12 2 1.030 0.996 0.111 339.145 o
4 12 3 11.279 11.193 0.513 15.221 o
4 12 4 3.249 3.228 0.211 91.778 o
4 12 5 38.534 38.948 1.418 1.946 o
4 12 6 0.233 0.513 0.111 341.540 o
4 12 7 3.918 4.214 0.201 99.707 o
4 12 8 1.533 1.438 0.131 241.770 o
4 12 9 0.963 0.774 0.121 285.743 o
4 12 11 7.343 7.592 0.382 27.672 o
4 12 13 0.784 0.734 0.141 210.439 o
4 14 2 0.374 0.442 0.101 413.002 o
4 14 3 4.176 4.043 0.241 69.903 o
4 14 4 0.654 0.774 0.131 244.094 o
4 14 5 13.422 13.405 0.583 11.719 o
4 14 7 1.384 1.468 0.121 283.616 o
4 14 8 0.574 0.463 0.091 508.950 o
4 14 9 0.388 0.332 0.091 509.828 o
4 14 11 2.671 2.595 0.171 140.000 o
4 16 3 1.314 1.177 0.131 242.613 o
4 16 5 4.159 4.022 0.302 45.175 o
4 16 6 0.023 0.825 0.352 33.761 o
4 16 7 0.439 0.493 0.141 210.813 o
5 1 0 35.611 28.057 1.136 3.003 o
5 1 1 1043.400 1073.040 40.798 0.002 o
5 1 2 989.878 1018.370 39.260 0.003 o
5 1 3 488.262 444.757 17.448 0.013 o
5 1 4 262.134 273.127 9.925 0.040 o
5 1 5 18.232 16.422 0.563 12.089 o
5 1 6 0.918 1.076 0.091 505.215 o
5 1 8 164.283 165.596 5.953 0.110 o
5 1 9 0.379 0.302 0.131 244.567 o
5 1 10 104.212 101.085 3.992 0.247 o
5 1 11 16.577 16.975 0.684 8.475 o
5 1 12 16.474 16.663 0.644 9.514 o
5 1 13 1.293 1.438 0.161 160.526 o
5 1 14 2.710 2.846 0.191 112.400 o
5 1 15 20.415 20.515 0.935 4.579 o
5 1 16 0.770 0.825 0.181 127.429 o
5 1 17 1.172 1.106 0.161 160.799 o
5 3 0 7.949 6.014 0.231 71.558 o
5 3 1 520.006 541.920 21.017 0.009 o
5 3 2 626.093 628.414 24.145 0.007 o
5 3 3 288.505 281.665 10.479 0.036 o
5 3 4 203.158 206.736 7.633 0.067 o
5 3 5 6.993 6.285 0.261 57.610 o
5 3 8 137.486 133.114 4.877 0.164 o
5 3 10 87.259 85.005 3.479 0.327 o
5 3 11 14.606 15.004 0.573 11.994 o
5 3 12 13.989 14.129 0.573 12.059 o
5 3 13 1.072 1.156 0.171 142.565 o
5 3 14 2.082 2.132 0.181 126.080 o
5 3 15 16.791 16.281 0.815 6.069 o
5 3 16 0.626 0.704 0.151 183.503 o
5 3 17 1.040 0.955 0.161 160.970 o
5 5 0 3.161 3.600 0.161 155.461 o
5 5 1 214.889 210.567 7.924 0.062 o
5 5 2 234.530 233.144 8.839 0.050 o
5 5 3 134.586 129.987 4.525 0.189 o
5 5 4 134.208 130.832 4.817 0.168 o
5 5 5 3.976 3.831 0.181 122.305 o
5 5 6 0.287 0.402 0.091 510.001 o
5 5 8 86.876 81.888 3.319 0.358 o
5 5 10 62.875 60.187 2.504 0.631 o
5 5 11 11.826 11.826 0.473 17.695 o
5 5 12 10.141 10.177 0.442 20.368 o
5 5 13 0.732 0.895 0.161 161.204 o
5 5 14 1.217 1.348 0.181 127.082 o
5 5 15 11.391 11.152 0.553 13.161 o
5 5 16 0.411 0.523 0.161 161.445 o
5 7 0 2.885 3.339 0.141 202.283 o
5 7 1 91.384 90.315 3.158 0.389 o
5 7 2 82.682 82.039 3.057 0.419 o
5 7 3 62.596 60.750 2.373 0.698 o
5 7 4 77.051 74.999 2.896 0.468 o
5 7 5 2.659 2.464 0.141 204.571 o
5 7 6 0.905 0.986 0.121 285.639 o
5 7 8 43.853 42.156 1.569 1.587 o
5 7 10 38.996 37.691 1.327 2.201 o
5 7 11 8.575 8.387 0.392 26.053 o
5 7 12 6.277 6.315 0.312 41.471 o
5 7 13 0.417 0.523 0.131 244.460 o
5 7 14 0.530 0.593 0.161 161.386 o
5 7 15 6.392 6.134 0.362 31.039 o
5 9 0 2.267 2.393 0.161 158.530 o
5 9 1 38.380 37.781 1.428 1.923 o
5 9 2 34.739 34.734 1.337 2.200 o
5 9 3 29.851 28.871 1.016 3.759 o
5 9 4 37.486 37.258 1.589 1.576 o
5 9 5 1.231 1.136 0.121 284.610 o
5 9 6 0.981 1.106 0.141 209.990 o
5 9 8 19.031 18.413 0.664 8.835 o
5 9 10 20.731 20.987 0.794 6.230 o
5 9 11 5.392 5.189 0.282 51.059 o
5 9 12 3.324 3.520 0.221 83.632 o
5 9 13 0.203 0.352 0.141 210.956 o
5 9 15 2.977 2.786 0.221 84.100 o
5 11 0 1.589 1.629 0.141 208.511 o
5 11 1 14.895 14.431 0.513 14.769 o
5 11 2 14.359 14.008 0.473 17.267 o
5 11 3 13.415 13.143 0.432 20.556 o
5 11 4 15.402 16.120 0.583 11.525 o
5 11 5 0.517 0.543 0.091 509.020 o
5 11 6 0.721 0.925 0.131 243.908 o
5 11 8 6.857 6.778 0.312 41.202 o
5 11 10 9.601 10.066 0.432 21.359 o
5 11 11 2.965 2.826 0.181 124.645 o
5 11 12 1.518 1.609 0.161 160.184 o
5 13 0 0.974 1.026 0.131 243.434 o
5 13 1 5.150 5.018 0.272 54.931 o
5 13 2 5.278 4.877 0.231 74.751 o
5 13 3 5.392 5.129 0.272 54.793 o
5 13 4 5.431 6.074 0.282 50.856 o
5 13 5 0.228 0.352 0.151 183.767 o
5 13 6 0.442 0.644 0.101 412.616 o
5 13 8 1.986 1.881 0.131 239.773 o
5 13 10 3.930 3.972 0.231 76.129 o
5 13 11 1.432 1.348 0.161 160.427 o
5 13 12 0.604 0.644 0.131 244.227 o
5 15 0 0.496 0.513 0.121 286.760 o
5 15 1 1.549 1.438 0.292 49.057 o
5 15 2 1.763 1.559 0.151 181.691 o
5 15 3 1.903 1.700 0.141 207.740 o
5 15 4 1.679 1.881 0.171 141.740 o
5 15 6 0.239 0.684 0.292 49.171 o
5 15 8 0.466 0.362 0.080 644.528 o
5 17 1 0.405 0.774 0.302 45.942 o
5 17 3 0.590 0.453 0.101 412.477 o
5 17 4 0.463 0.382 0.111 341.323 o
6 0 0 8.167 13.465 0.664 9.301 o
6 0 1 18.057 14.722 1.136 3.174 o
6 0 2 170.124 170.031 8.799 0.052 o
6 0 3 258.027 247.494 12.611 0.025 o
6 0 4 100.611 89.611 4.475 0.200 o
6 0 5 410.206 410.113 21.581 0.009 o
6 0 6 3.588 2.957 0.221 83.643 o
6 0 7 4.141 3.600 0.251 64.685 o
6 0 8 6.003 5.923 0.372 29.505 o
6 0 9 5.480 5.863 0.382 28.081 o
6 0 10 72.053 71.128 4.153 0.236 o
6 0 11 32.868 32.472 1.599 1.575 o
6 0 12 32.073 32.029 1.589 1.596 o
6 0 13 9.339 9.493 0.593 11.611 o
6 0 14 7.663 7.492 0.513 15.583 o
6 0 16 9.853 9.996 0.674 9.032 o
6 2 0 8.087 7.019 0.272 52.762 o
6 2 1 61.789 55.832 2.072 0.905 o
6 2 2 108.968 104.454 3.500 0.314 o
6 2 3 156.873 148.953 5.390 0.134 o
6 2 4 132.480 115.496 4.012 0.238 o
6 2 5 380.311 379.391 13.556 0.021 o
6 2 6 4.512 3.761 0.181 121.404 o
6 2 7 2.235 2.102 0.131 238.514 o
6 2 8 5.334 4.928 0.231 74.681 o
6 2 9 4.337 4.616 0.231 75.609 o
6 2 10 66.254 65.164 2.987 0.449 o
6 2 11 29.987 29.042 1.016 3.757 o
6 2 12 28.783 29.254 1.046 3.570 o
6 2 13 8.552 8.709 0.402 24.796 o
6 2 14 6.955 6.687 0.342 34.487 o
6 2 16 9.177 9.201 0.503 16.047 o
6 4 0 13.270 13.023 0.392 24.609 o
6 4 1 61.871 52.483 1.971 0.995 o
6 4 2 32.240 33.125 1.368 2.124 o
6 4 3 57.524 61.594 2.353 0.714 o
6 4 4 118.729 106.777 3.751 0.274 o
6 4 5 284.120 284.068 11.424 0.030 o
6 4 6 4.907 4.324 0.201 98.382 o
6 4 7 0.557 0.563 0.131 244.317 o
6 4 8 4.695 4.264 0.211 89.909 o
6 4 9 2.461 2.695 0.161 157.910 o
6 4 10 51.898 52.021 1.881 1.105 o
6 4 11 23.023 22.707 0.835 5.611 o
6 4 12 20.826 20.736 0.794 6.231 o
6 4 13 6.665 6.999 0.342 34.519 o
6 4 14 5.207 5.199 0.292 47.767 o
6 4 16 7.407 7.281 0.412 23.896 o
6 6 1 21.088 17.930 0.623 9.818 o
6 6 2 5.445 6.225 0.251 63.155 o
6 6 3 23.044 24.497 0.905 4.805 o
6 6 4 63.126 60.016 2.373 0.698 o
6 6 5 173.939 167.124 5.883 0.112 o
6 6 6 3.921 3.761 0.181 122.462 o
6 6 8 4.437 4.224 0.211 90.206 o
6 6 9 1.147 1.167 0.131 242.975 o
6 6 10 34.781 35.257 1.237 2.545 o
6 6 11 14.969 14.873 0.573 11.975 o
6 6 12 12.163 12.108 0.483 16.955 o
6 6 13 4.465 4.716 0.251 64.223 o
6 6 14 3.234 3.198 0.211 91.802 o
6 6 16 5.185 4.978 0.302 44.760 o
6 8 0 1.231 1.036 0.070 823.107 o
6 8 1 9.088 8.699 0.292 45.217 o
6 8 2 0.180 0.251 0.070 843.421 o
6 8 3 8.568 8.286 0.302 42.818 o
6 8 4 33.869 32.984 1.187 2.765 o
6 8 5 95.985 93.815 3.610 0.301 o
6 8 6 3.042 3.057 0.171 139.012 o
6 8 8 3.654 3.479 0.201 100.419 o
6 8 9 0.394 0.432 0.121 286.918 o
6 8 10 19.860 20.485 0.784 6.409 o
6 8 11 8.195 8.196 0.382 27.469 o
6 8 12 5.719 5.843 0.292 47.460 o
6 8 13 2.537 2.625 0.201 101.859 o
6 8 14 1.683 1.659 0.161 159.952 o
6 10 0 0.669 0.704 0.121 286.375 o
6 10 1 4.863 4.948 0.201 98.015 o
6 10 2 0.275 0.302 0.070 842.802 o
6 10 3 2.785 2.605 0.141 203.927 o
6 10 4 18.235 17.910 0.623 9.976 o
6 10 5 47.845 46.590 1.870 1.128 o
6 10 6 2.171 2.333 0.151 180.181 o
6 10 8 2.515 2.484 0.161 158.006 o
6 10 10 9.693 10.348 0.442 20.412 o
6 10 11 3.822 4.002 0.272 55.678 o
6 10 12 2.147 2.162 0.191 113.236 o
6 10 13 1.218 1.348 0.161 160.645 o
6 10 14 0.744 0.694 0.151 183.425 o
6 12 0 0.291 0.392 0.111 341.543 o
6 12 1 2.234 2.403 0.131 237.950 o
6 12 2 0.745 0.734 0.091 507.455 o
6 12 3 0.825 0.674 0.091 507.164 o
6 12 4 8.344 8.327 0.342 33.906 o
6 12 5 20.971 20.947 0.764 6.693 o
6 12 6 1.271 1.488 0.121 283.953 o
6 12 8 1.473 1.428 0.131 241.937 o
6 12 10 4.079 4.405 0.241 69.852 o
6 12 11 1.558 1.609 0.191 113.851 o
6 12 12 0.630 0.613 0.131 244.214 o
6 14 1 0.940 1.056 0.131 243.465 o
6 14 2 0.722 0.774 0.091 507.470 o
6 14 4 3.296 3.298 0.231 76.737 o
6 14 5 8.112 7.965 0.302 43.096 o
6 14 6 0.620 0.754 0.101 411.927 o
6 14 8 0.720 0.714 0.101 411.649 o
6 14 10 1.491 1.589 0.161 160.228 o
6 16 2 0.457 0.734 0.261 61.158 o
6 16 4 1.165 1.136 0.131 242.971 o
6 16 5 2.803 2.625 0.201 101.643 o
7 1 0 55.633 54.666 2.041 0.940 o
7 1 1 5.191 3.691 0.161 149.742 o
7 1 2 137.365 134.874 4.767 0.171 o
7 1 3 9.571 10.247 0.362 29.881 o
7 1 4 91.618 102.091 3.620 0.300 o
7 1 5 71.267 68.503 2.765 0.516 o
7 1 6 259.258 256.283 9.704 0.042 o
7 1 7 41.769 40.537 1.780 1.257 o
7 1 8 79.501 77.383 3.087 0.414 o
7 1 9 3.460 3.449 0.191 111.191 o
7 1 10 88.299 86.182 3.570 0.311 o
7 1 11 18.741 18.644 0.714 7.713 o
7 1 12 7.429 7.713 0.352 32.389 o
7 1 13 3.866 3.952 0.231 76.179 o
7 1 16 7.632 8.226 0.432 21.708 o
7 3 0 23.703 24.608 0.996 4.004 o
7 3 1 4.186 3.540 0.161 152.913 o
7 3 2 151.232 152.312 5.320 0.137 o
7 3 3 3.408 3.711 0.171 137.726 o
7 3 4 64.739 67.196 2.554 0.604 o
7 3 5 84.840 80.561 3.188 0.387 o
7 3 6 194.586 192.607 6.667 0.087 o
7 3 7 37.572 35.619 1.307 2.279 o
7 3 8 69.713 66.854 2.765 0.517 o
7 3 9 2.516 2.635 0.161 157.863 o
7 3 10 76.387 73.380 3.117 0.408 o
7 3 11 17.102 16.995 0.644 9.479 o
7 3 12 5.866 5.913 0.292 47.389 o
7 3 13 3.152 3.138 0.201 101.100 o
7 3 16 6.417 6.758 0.372 29.371 o
7 5 0 19.129 18.182 0.543 12.761 o
7 5 1 0.160 0.453 0.080 645.632 o
7 5 2 71.376 71.630 2.765 0.515 o
7 5 3 0.254 0.342 0.080 645.505 o
7 5 4 42.525 41.080 1.720 1.340 o
7 5 5 56.446 50.844 2.051 0.933 o
7 5 6 112.524 109.412 4.033 0.240 o
7 5 7 28.103 26.961 0.895 4.794 o
7 5 8 49.886 47.707 1.951 1.038 o
7 5 9 1.591 1.508 0.131 241.523 o
7 5 10 57.469 55.470 2.132 0.863 o
7 5 11 14.267 14.290 0.553 12.876 o
7 5 12 3.714 3.862 0.221 83.218 o
7 5 13 2.061 2.072 0.181 126.130 o
7 5 16 4.559 4.827 0.312 42.168 o
7 7 0 17.747 16.713 0.533 13.398 o
7 7 1 0.463 0.261 0.070 841.602 o
7 7 2 28.209 28.620 0.975 4.076 o
7 7 4 24.685 24.065 0.794 6.090 o
7 7 5 26.532 24.728 0.825 5.634 o
7 7 6 53.654 52.051 2.202 0.818 o
7 7 7 18.230 17.699 0.623 9.982 o
7 7 8 30.173 29.073 0.986 3.969 o
7 7 9 0.871 0.784 0.131 243.793 o
7 7 10 37.682 37.188 1.307 2.273 o
7 7 11 10.661 10.408 0.453 19.439 o
7 7 12 1.877 2.011 0.171 141.454 o
7 7 13 1.088 1.156 0.161 160.850 o
7 9 0 12.586 12.349 0.442 19.888 o
7 9 1 0.885 0.684 0.080 640.102 o
7 9 2 15.456 15.436 0.503 15.210 o
7 9 4 12.069 12.480 0.453 19.132 o
7 9 5 11.625 11.253 0.422 21.936 o
7 9 6 21.597 21.319 0.734 7.188 o
7 9 7 10.663 10.619 0.412 23.169 o
7 9 8 16.141 16.130 0.593 11.118 o
7 9 9 0.391 0.402 0.121 286.935 o
7 9 10 21.555 21.872 0.825 5.781 o
7 9 11 6.987 7.049 0.342 34.435 o
7 9 12 0.750 0.845 0.141 210.417 o
7 9 13 0.469 0.483 0.141 210.798 o
7 11 0 7.465 7.623 0.362 30.685 o
7 11 1 0.854 0.825 0.101 410.908 o
7 11 2 8.482 8.296 0.302 42.855 o
7 11 4 5.340 5.712 0.251 63.395 o
7 11 5 4.257 4.153 0.201 99.333 o
7 11 6 7.083 7.080 0.312 41.070 o
7 11 7 5.495 5.712 0.261 58.711 o
7 11 8 7.539 7.854 0.332 36.196 o
7 11 10 10.789 11.142 0.483 17.139 o
7 11 11 3.994 3.952 0.241 70.036 o
7 11 12 0.241 0.352 0.131 244.630 o
7 13 0 3.837 4.053 0.241 70.098 o
7 13 1 0.623 0.644 0.121 286.496 o
7 13 2 3.974 3.902 0.191 110.197 o
7 13 4 2.157 2.363 0.121 278.427 o
7 13 5 1.239 1.277 0.121 284.379 o
7 13 6 1.804 1.830 0.141 207.819 o
7 13 7 2.488 2.776 0.171 140.140 o
7 13 8 3.067 3.288 0.181 124.182 o
7 13 10 4.741 4.938 0.282 51.365 o
7 13 11 1.989 1.911 0.171 141.382 o
7 15 0 1.688 1.730 0.171 141.808 o
7 15 1 0.350 0.352 0.101 413.132 o
7 15 2 1.630 1.508 0.111 335.385 o
7 15 4 0.763 0.825 0.101 411.280 o
7 15 5 0.315 0.352 0.070 842.387 o
7 15 6 0.331 0.302 0.070 842.449 o
7 15 7 1.012 1.116 0.111 338.998 o
7 15 8 1.106 1.197 0.131 243.027 o
7 17 0 0.641 0.553 0.111 340.850 o
7 17 2 0.588 0.573 0.231 78.139 o
7 17 4 0.235 0.453 0.181 127.619 o
8 0 0 305.280 293.089 14.451 0.019 o
8 0 1 1242.110 1223.760 64.501 0.001 o
8 0 2 140.286 128.277 6.104 0.107 o
8 0 3 617.142 532.467 56.094 0.001 o
8 0 4 542.776 504.290 27.222 0.005 o
8 0 5 3.446 3.660 0.241 70.416 o
8 0 6 22.353 20.796 1.006 3.963 o
8 0 7 15.684 14.813 0.744 7.264 o
8 0 8 8.814 9.000 0.533 14.354 o
8 0 9 33.984 34.704 1.679 1.428 o
8 0 10 108.258 104.092 6.104 0.109 o
8 0 11 2.544 2.826 0.261 60.610 o
8 0 12 2.925 2.987 0.272 56.121 o
8 0 13 13.172 13.224 0.815 6.154 o
8 0 14 8.875 8.628 0.553 13.359 o
8 0 16 31.136 32.009 2.957 0.474 o
8 2 0 200.967 187.991 7.090 0.078 o
8 2 1 767.340 797.419 30.239 0.004 o
8 2 2 106.014 94.860 3.329 0.347 o
8 2 3 458.002 472.401 17.810 0.012 o
8 2 4 452.402 422.492 15.547 0.016 o
8 2 5 3.668 3.117 0.151 175.143 o
8 2 6 19.407 18.705 0.634 9.604 o
8 2 7 16.537 15.849 0.563 12.236 o
8 2 8 8.611 8.880 0.352 31.950 o
8 2 9 29.873 29.897 1.006 3.823 o
8 2 10 99.971 97.073 4.093 0.237 o
8 2 11 2.203 2.393 0.171 140.816 o
8 2 12 2.682 2.705 0.181 125.088 o
8 2 13 12.155 12.258 0.533 14.042 o
8 2 14 8.169 8.176 0.382 27.476 o
8 2 15 0.231 0.573 0.151 183.732 o
8 2 16 28.700 29.666 2.051 0.976 o
8 4 0 74.626 75.050 2.776 0.509 o
8 4 1 393.693 406.905 15.034 0.017 o
8 4 2 76.380 70.424 2.605 0.573 o
8 4 3 241.656 246.408 9.151 0.047 o
8 4 4 312.233 293.411 10.911 0.033 o
8 4 5 5.398 4.395 0.201 97.651 o
8 4 6 15.059 14.793 0.533 13.719 o
8 4 7 15.377 14.541 0.533 13.703 o
8 4 8 7.719 8.115 0.342 34.108 o
8 4 9 20.580 20.404 0.734 7.236 o
8 4 10 76.957 71.892 3.248 0.378 o
8 4 11 1.424 1.589 0.151 182.194 o
8 4 12 2.131 2.232 0.171 141.014 o
8 4 13 9.658 9.684 0.432 21.377 o
8 4 14 6.389 6.255 0.322 38.983 o
8 4 15 0.104 0.382 0.151 183.792 o
8 4 16 22.508 21.832 1.458 1.925 o
8 6 0 23.044 24.085 0.734 7.093 o
8 6 1 268.041 262.830 9.765 0.041 o
8 6 2 65.049 63.032 2.413 0.674 o
8 6 3 119.330 115.697 4.103 0.231 o
8 6 4 201.126 186.382 6.506 0.091 o
8 6 5 7.557 6.808 0.282 49.649 o
8 6 6 11.338 11.434 0.422 21.968 o
8 6 7 10.915 10.448 0.402 24.239 o
8 6 8 6.232 6.416 0.292 47.141 o
8 6 9 11.159 10.710 0.422 22.055 o
8 6 10 49.056 48.853 1.750 1.273 o
8 6 11 0.679 0.694 0.131 244.112 o
8 6 12 1.504 1.639 0.151 182.039 o
8 6 13 6.672 6.607 0.322 38.850 o
8 6 14 4.265 4.314 0.272 55.454 o
8 8 0 6.726 6.426 0.251 62.166 o
8 8 1 156.745 155.902 5.038 0.151 o
8 8 2 47.418 46.208 1.941 1.053 o
8 8 3 54.564 53.399 2.182 0.831 o
8 8 4 112.844 106.405 4.033 0.240 o
8 8 5 7.344 6.788 0.282 49.767 o
8 8 6 7.270 7.301 0.302 43.597 o
8 8 7 6.436 6.396 0.272 53.932 o
8 8 8 4.572 4.787 0.231 75.364 o
8 8 9 4.639 4.616 0.261 59.451 o
8 8 10 26.723 27.132 1.046 3.603 o
8 8 11 0.228 0.392 0.151 183.761 o
8 8 12 0.931 1.146 0.141 210.030 o
8 8 13 3.996 3.982 0.251 64.662 o
8 8 14 2.443 2.413 0.191 112.871 o
8 10 0 1.863 1.971 0.151 181.154 o
8 10 1 76.454 78.177 2.826 0.490 o
8 10 2 29.122 29.264 0.895 4.753 o
8 10 3 22.450 22.164 0.754 6.798 o
8 10 4 54.676 54.022 2.243 0.789 o
8 10 5 5.487 5.129 0.241 68.652 o
8 10 6 3.935 4.254 0.211 90.702 o
8 10 7 3.199 3.389 0.191 111.550 o
8 10 8 2.956 3.138 0.181 124.444 o
8 10 9 1.439 1.327 0.151 182.359 o
8 10 10 12.569 13.375 0.583 11.765 o
8 10 12 0.512 0.654 0.131 244.317 o
8 10 13 2.089 2.122 0.201 102.363 o
8 10 14 1.209 1.287 0.171 142.423 o
8 12 0 0.443 0.955 0.312 43.023 o
8 12 1 33.882 36.786 1.398 2.024 o
8 12 2 15.689 16.965 0.563 12.257 o
8 12 3 8.365 8.316 0.302 42.904 o
8 12 4 23.364 23.863 0.835 5.591 o
8 12 5 3.425 3.268 0.181 123.666 o
8 12 6 1.894 2.283 0.161 159.223 o
8 12 7 1.323 1.539 0.141 209.113 o
8 12 8 1.639 1.810 0.151 181.688 o
8 12 9 0.320 0.342 0.121 287.025 o
8 12 10 5.073 5.249 0.282 51.176 o
8 12 12 0.259 0.533 0.151 183.729 o
8 14 1 13.439 14.481 0.684 8.619 o
8 14 2 7.334 7.904 0.352 32.389 o
8 14 3 2.787 2.584 0.141 203.951 o
8 14 4 8.763 8.880 0.332 35.651 o
8 14 5 1.794 1.679 0.121 281.684 o
8 14 6 0.826 0.965 0.101 410.729 o
8 14 7 0.473 0.634 0.111 341.099 o
8 14 8 0.775 0.784 0.141 210.423 o
8 14 10 1.773 1.750 0.151 181.513 o
8 16 1 4.703 4.847 0.362 31.411 o
8 16 2 2.962 3.127 0.231 76.969 o
8 16 3 0.826 0.553 0.101 411.557 o
8 16 4 2.876 2.735 0.201 101.534 o
8 16 5 0.792 0.684 0.080 640.989 o
8 16 6 0.328 0.382 0.091 509.923 o
8 16 7 0.152 0.251 0.101 413.468 o
9 1 0 3.946 4.435 0.191 109.851 o
9 1 1 0.382 0.442 0.141 210.860 o
9 1 2 268.826 259.008 9.493 0.043 o
9 1 3 175.753 174.586 5.802 0.115 o
9 1 4 106.032 106.284 3.811 0.269 o
9 1 5 33.328 31.295 1.086 3.271 o
9 1 6 5.084 4.757 0.221 81.621 o
9 1 7 286.862 275.380 10.016 0.039 o
9 1 8 224.643 213.333 7.442 0.070 o
9 1 9 0.350 0.453 0.111 341.434 o
9 1 10 71.684 70.343 2.987 0.445 o
9 1 11 4.479 4.415 0.241 69.600 o
9 1 12 19.847 20.877 0.815 5.964 o
9 1 13 10.943 11.766 0.523 14.669 o
9 1 14 1.501 1.529 0.171 142.084 o
9 1 15 19.753 20.324 0.965 4.317 o
9 1 16 1.698 2.715 0.221 84.787 o
9 3 0 0.908 1.096 0.091 505.215 o
9 3 1 6.848 4.475 0.191 104.791 o
9 3 2 140.397 136.755 4.827 0.167 o
9 3 3 153.316 145.795 4.918 0.159 o
9 3 4 76.839 75.754 2.866 0.478 o
9 3 5 25.309 24.859 0.815 5.791 o
9 3 6 2.167 2.323 0.151 180.199 o
9 3 7 243.984 235.014 8.095 0.059 o
9 3 8 189.728 179.594 6.406 0.095 o
9 3 9 0.504 0.583 0.121 286.706 o
9 3 10 62.051 61.051 2.413 0.677 o
9 3 11 4.205 4.123 0.221 82.715 o
9 3 12 16.503 17.176 0.684 8.474 o
9 3 13 8.779 9.533 0.412 23.555 o
9 3 14 1.302 1.307 0.151 182.555 o
9 3 15 16.721 16.412 1.026 3.881 o
9 3 16 1.492 2.253 0.191 113.689 o
9 5 1 12.020 10.408 0.372 27.757 o
9 5 2 104.317 103.971 3.781 0.273 o
9 5 3 95.292 89.521 3.520 0.317 o
9 5 4 42.270 41.713 1.700 1.370 o
9 5 5 19.251 18.453 0.623 9.907 o
9 5 6 0.773 0.724 0.101 411.435 o
9 5 7 175.159 167.416 6.205 0.101 o
9 5 8 134.002 126.286 4.807 0.169 o
9 5 9 0.643 0.583 0.121 286.512 o
9 5 10 45.707 45.163 1.559 1.595 o
9 5 11 3.503 3.379 0.231 76.592 o
9 5 12 11.443 12.047 0.533 14.099 o
9 5 13 5.697 6.164 0.322 39.187 o
9 5 14 0.982 0.996 0.161 161.000 o
9 5 15 12.033 12.741 0.734 7.565 o
9 5 16 1.150 1.720 0.201 102.975 o
9 7 0 1.153 0.915 0.101 409.264 o
9 7 1 10.704 9.734 0.352 31.239 o
9 7 2 80.505 77.232 2.926 0.457 o
9 7 3 49.105 46.590 1.911 1.082 o
9 7 4 19.858 19.791 0.674 8.527 o
9 7 5 12.929 12.118 0.442 19.854 o
9 7 7 108.431 104.213 4.123 0.232 o
9 7 8 80.855 76.256 3.148 0.399 o
9 7 9 0.724 0.543 0.141 210.584 o
9 7 10 28.954 28.892 1.046 3.570 o
9 7 11 2.606 2.635 0.191 112.611 o
9 7 12 6.644 7.321 0.362 30.881 o
9 7 13 2.987 3.339 0.211 91.941 o
9 7 14 0.643 0.714 0.151 183.488 o
9 7 15 7.396 7.854 0.453 19.910 o
9 9 0 1.509 1.418 0.131 241.858 o
9 9 1 7.042 6.637 0.251 61.841 o
9 9 2 47.157 45.967 1.750 1.281 o
9 9 3 23.375 22.285 0.754 6.768 o
9 9 4 8.443 8.337 0.332 35.843 o
9 9 5 6.806 6.476 0.292 46.884 o
9 9 7 58.885 58.185 2.293 0.750 o
9 9 8 42.563 42.307 1.458 1.823 o
9 9 9 0.714 0.613 0.131 244.118 o
9 9 10 16.026 16.331 0.644 9.541 o
9 9 11 1.760 1.780 0.161 159.772 o
9 9 12 3.264 3.771 0.241 70.481 o
9 9 13 1.258 1.448 0.161 160.556 o
9 9 14 0.365 0.503 0.151 183.695 o
9 11 0 1.150 1.237 0.121 284.696 o
9 11 1 3.491 3.630 0.181 123.281 o
9 11 2 23.669 24.356 0.764 6.565 o
9 11 3 9.738 9.664 0.372 28.413 o
9 11 4 3.154 3.238 0.171 138.652 o
9 11 5 2.992 3.027 0.171 139.125 o
9 11 6 0.139 0.322 0.111 341.713 o
9 11 7 28.023 28.942 1.026 3.712 o
9 11 8 19.528 20.072 0.774 6.580 o
9 11 9 0.557 0.493 0.121 286.697 o
9 11 10 7.752 8.125 0.402 24.961 o
9 11 11 1.060 1.066 0.161 160.910 o
9 11 12 1.382 1.529 0.151 182.298 o
9 11 13 0.425 0.583 0.141 210.794 o
9 13 0 0.661 1.428 0.312 43.004 o
9 13 1 1.402 1.710 0.211 93.346 o
9 13 2 10.565 11.182 0.402 24.236 o
9 13 3 3.511 3.650 0.171 137.580 o
9 13 4 0.991 0.955 0.101 409.988 o
9 13 5 1.150 1.197 0.121 284.754 o
9 13 6 0.185 0.352 0.111 341.667 o
9 13 7 11.745 12.560 0.493 16.325 o
9 13 8 7.826 8.216 0.372 28.981 o
9 13 9 0.339 0.362 0.131 244.573 o
9 13 10 3.291 3.369 0.211 91.686 o
9 13 11 0.564 0.674 0.151 183.551 o
9 15 0 0.322 0.412 0.121 286.994 o
9 15 1 0.506 1.086 0.302 45.932 o
9 15 2 4.067 4.344 0.251 64.535 o
9 15 3 1.139 1.146 0.101 408.708 o
9 15 4 0.255 0.302 0.070 842.919 o
9 15 5 0.391 0.463 0.080 644.653 o
9 15 7 4.390 4.425 0.231 75.641 o
9 15 8 2.773 2.786 0.201 101.600 o
9 17 2 1.351 1.187 0.131 242.519 o
9 17 3 0.343 0.402 0.111 341.476 o
10 0 0 658.208 687.544 37.530 0.003 o
10 0 1 1129.430 1130.070 60.005 0.001 o
10 0 2 862.280 741.577 53.298 0.001 o
10 0 3 8.431 8.870 0.493 16.755 o
10 0 4 8.404 6.134 0.372 29.071 o
10 0 5 10.984 11.706 0.603 11.131 o
10 0 6 66.958 68.764 3.841 0.276 o
10 0 7 75.057 76.769 4.324 0.218 o
10 0 8 27.471 28.690 1.368 2.153 o
10 0 9 5.848 5.169 0.362 31.214 o
10 0 10 9.122 9.594 0.563 12.864 o
10 0 11 3.325 3.047 0.272 55.998 o
10 0 12 31.196 30.973 1.730 1.357 o
10 0 13 24.127 24.396 1.388 2.112 o
10 0 14 13.127 13.244 0.855 5.601 o
10 0 15 0.016 0.543 0.231 78.180 o
10 0 16 14.997 15.698 1.498 1.845 o
10 2 0 527.705 534.941 21.239 0.009 o
10 2 1 967.220 994.310 37.831 0.003 o
10 2 2 760.360 722.450 26.699 0.005 o
10 2 3 6.934 7.432 0.302 43.707 o
10 2 4 4.204 2.886 0.151 173.770 o
10 2 5 8.653 9.161 0.352 31.902 o
10 2 6 60.433 61.836 2.494 0.637 o
10 2 7 70.503 71.158 2.856 0.485 o
10 2 8 25.953 26.900 0.975 4.118 o
10 2 9 5.178 4.626 0.231 74.940 o
10 2 10 8.071 8.638 0.402 24.876 o
10 2 11 3.093 2.725 0.181 124.539 o
10 2 12 28.588 27.574 1.046 3.581 o
10 2 13 22.796 23.039 1.026 3.800 o
10 2 14 12.099 12.480 0.563 12.636 o
10 2 15 0.019 0.513 0.161 161.542 o
10 2 16 13.824 13.898 0.965 4.404 o
10 4 0 316.542 317.455 11.374 0.030 o
10 4 1 646.445 655.324 26.649 0.006 o
10 4 2 542.865 520.611 19.770 0.010 o
10 4 3 3.939 4.012 0.191 110.168 o
10 4 4 2.057 1.619 0.121 280.682 o
10 4 5 4.378 4.495 0.201 98.966 o
10 4 6 46.261 45.756 1.820 1.192 o
10 4 7 51.907 51.639 2.062 0.930 o
10 4 8 21.763 22.194 0.794 6.190 o
10 4 9 3.854 3.479 0.191 110.656 o
10 4 10 5.855 6.164 0.312 41.626 o
10 4 11 2.505 2.243 0.181 125.573 o
10 4 12 22.040 21.681 0.825 5.772 o
10 4 13 19.228 19.670 0.915 4.795 o
10 4 14 9.492 9.785 0.473 18.034 o
10 4 15 0.028 0.583 0.241 71.800 o
10 4 16 10.855 10.619 0.875 5.388 o
10 6 0 165.762 161.061 5.078 0.148 o
10 6 1 380.452 375.771 13.898 0.020 o
10 6 2 335.655 317.314 11.746 0.028 o
10 6 3 2.011 1.840 0.121 280.391 o
10 6 4 2.637 2.424 0.151 179.011 o
10 6 5 1.571 1.508 0.111 335.692 o
10 6 6 30.046 29.344 0.975 4.045 o
10 6 7 28.548 28.610 0.965 4.150 o
10 6 8 15.940 15.909 0.593 11.136 o
10 6 9 2.543 2.142 0.171 140.521 o
10 6 10 3.611 3.711 0.231 76.423 o
10 6 11 1.774 1.559 0.161 159.899 o
10 6 12 14.385 14.400 0.583 11.637 o
10 6 13 14.428 14.632 0.623 10.245 o
10 6 14 6.364 6.547 0.342 34.642 o
10 8 0 75.253 74.235 2.635 0.560 o
10 8 1 206.124 203.940 6.275 0.097 o
10 8 2 185.706 178.528 6.436 0.094 o
10 8 3 1.272 1.197 0.121 284.400 o
10 8 4 2.306 2.041 0.141 206.267 o
10 8 5 0.448 0.453 0.101 412.833 o
10 8 6 15.822 16.291 0.593 11.132 o
10 8 7 13.219 13.687 0.513 14.957 o
10 8 8 10.099 10.338 0.412 23.286 o
10 8 9 1.424 1.287 0.151 182.407 o
10 8 10 1.840 1.830 0.211 93.132 o
10 8 11 1.098 0.996 0.141 209.906 o
10 8 12 8.035 8.407 0.422 22.661 o
10 8 13 9.555 10.066 0.513 15.388 o
10 8 14 3.660 3.671 0.251 64.896 o
10 10 0 28.816 28.157 0.895 4.769 o
10 10 1 100.340 101.628 3.570 0.306 o
10 10 2 91.056 89.883 3.117 0.399 o
10 10 3 0.928 0.694 0.131 243.775 o
10 10 4 1.446 1.378 0.121 283.557 o
10 10 6 6.895 7.683 0.342 34.379 o
10 10 7 5.243 5.792 0.282 50.996 o
10 10 8 5.554 5.823 0.282 50.858 o
10 10 9 0.671 0.583 0.121 286.468 o
10 10 10 0.777 0.754 0.151 183.378 o
10 10 11 0.599 0.543 0.131 244.286 o
10 10 12 3.894 4.133 0.261 59.898 o
10 10 13 5.551 5.692 0.322 39.286 o
10 12 0 9.242 8.940 0.382 27.197 o
10 12 1 42.840 45.575 1.478 1.770 o
10 12 2 39.196 40.979 1.317 2.222 o
10 12 3 0.636 0.623 0.131 244.203 o
10 12 4 0.833 0.794 0.161 161.173 o
10 12 6 2.637 3.117 0.181 124.885 o
10 12 7 1.667 1.891 0.151 181.573 o
10 12 8 2.670 2.896 0.191 112.415 o
10 12 10 0.281 0.352 0.141 210.927 o
10 12 11 0.291 0.362 0.141 210.921 o
10 12 12 1.663 1.780 0.171 141.808 o
10 14 0 2.451 1.820 0.322 40.209 o
10 14 1 16.085 17.417 0.694 8.252 o
10 14 2 14.870 15.808 0.593 11.200 o
10 14 3 0.369 0.372 0.080 644.979 o
10 14 4 0.420 0.573 0.121 286.815 o
10 14 6 0.920 0.996 0.141 210.140 o
10 14 7 0.419 0.543 0.101 412.794 o
10 14 8 1.131 1.146 0.121 284.877 o
10 16 0 0.528 1.177 0.362 31.901 o
10 16 1 5.376 5.501 0.342 34.963 o
10 16 2 5.016 4.968 0.261 59.173 o
10 16 3 0.179 0.201 0.080 645.925 o
10 16 4 0.177 0.231 0.080 645.894 o
10 16 6 0.301 0.292 0.080 645.424 o
11 1 0 3.217 3.258 0.161 155.732 o
11 1 1 1.017 1.358 0.111 338.534 o
11 1 2 32.195 30.822 1.026 3.651 o
11 1 3 175.429 167.919 5.893 0.112 o
11 1 4 47.628 49.074 2.001 0.991 o
11 1 5 1.524 1.448 0.111 336.086 o
11 1 6 126.023 120.755 4.485 0.194 o
11 1 7 247.566 239.298 8.447 0.054 o
11 1 8 19.441 19.197 0.684 8.325 o
11 1 9 3.464 3.007 0.181 123.805 o
11 1 10 54.822 54.545 1.961 1.014 o
11 1 11 22.480 22.637 0.825 5.752 o
11 1 14 0.795 1.116 0.151 183.212 o
11 1 15 7.409 7.542 0.402 25.051 o
11 1 16 1.550 1.458 0.181 126.824 o
11 3 2 34.732 31.828 1.056 3.426 o
11 3 3 123.131 120.645 4.294 0.211 o
11 3 4 36.653 36.977 1.378 2.067 o
11 3 5 2.013 1.860 0.121 280.337 o
11 3 6 98.406 95.444 3.741 0.281 o
11 3 7 209.931 203.568 7.150 0.076 o
11 3 8 16.328 16.482 0.623 10.111 o
11 3 9 2.575 2.142 0.171 140.477 o
11 3 10 45.089 45.756 1.609 1.505 o
11 3 11 18.294 18.544 0.714 7.729 o
11 3 14 0.721 0.945 0.151 183.347 o
11 3 15 6.287 6.124 0.332 36.775 o
11 3 16 1.225 1.096 0.191 114.164 o
11 5 1 1.328 0.543 0.101 409.322 o
11 5 2 31.078 28.218 0.945 4.277 o
11 5 3 86.141 79.645 3.087 0.411 o
11 5 4 18.363 18.192 0.623 9.962 o
11 5 5 1.341 1.167 0.121 284.238 o
11 5 6 65.237 63.726 2.665 0.558 o
11 5 7 156.344 153.156 5.682 0.121 o
11 5 8 12.585 12.862 0.503 15.622 o
11 5 9 1.499 1.086 0.171 142.276 o
11 5 10 30.779 30.913 1.126 3.083 o
11 5 11 12.150 12.349 0.513 15.106 o
11 5 14 0.596 0.815 0.151 183.486 o
11 5 15 4.523 4.344 0.272 55.346 o
11 7 0 0.431 0.543 0.121 286.819 o
11 7 1 1.660 1.337 0.151 182.031 o
11 7 2 22.325 21.309 0.724 7.349 o
11 7 3 53.127 49.175 1.870 1.116 o
11 7 4 6.505 6.265 0.272 53.930 o
11 7 5 0.577 0.513 0.111 341.018 o
11 7 6 37.191 37.077 1.237 2.522 o
11 7 7 101.750 100.472 4.284 0.217 o
11 7 8 8.843 8.880 0.382 27.282 o
11 7 9 0.643 0.493 0.141 210.673 o
11 7 10 17.459 17.940 0.734 7.367 o
11 7 11 6.583 6.647 0.322 38.870 o
11 7 14 0.440 0.503 0.151 183.662 o
11 7 15 2.773 2.625 0.221 84.268 o
11 9 0 0.385 0.412 0.080 644.811 o
11 9 1 1.336 1.177 0.111 337.601 o
11 9 2 13.279 13.455 0.533 13.915 o
11 9 3 25.317 24.416 0.835 5.541 o
11 9 4 1.781 1.689 0.131 240.724 o
11 9 5 0.238 0.302 0.101 413.342 o
11 9 6 17.963 18.684 0.674 8.629 o
11 9 7 57.237 57.532 2.212 0.804 o
11 9 8 5.468 5.491 0.282 50.965 o
11 9 10 8.260 8.699 0.402 24.842 o
11 9 11 2.893 2.856 0.191 112.202 o
11 9 14 0.286 0.372 0.161 161.504 o
11 11 0 0.257 0.332 0.080 645.511 o
11 11 1 0.803 0.835 0.101 411.099 o
11 11 2 6.608 7.049 0.272 53.651 o
11 11 3 10.134 10.418 0.402 24.386 o
11 11 4 0.295 0.312 0.111 341.583 o
11 11 6 7.505 8.186 0.362 30.616 o
11 11 7 28.135 29.374 1.056 3.513 o
11 11 8 2.996 3.107 0.191 111.950 o
11 11 10 3.318 3.600 0.221 83.607 o
11 11 11 1.019 1.106 0.151 183.001 o
11 13 1 0.398 0.362 0.091 509.754 o
11 13 2 2.822 3.138 0.161 156.745 o
11 13 3 3.616 3.912 0.181 122.849 o
11 13 6 2.767 3.027 0.201 101.502 o
11 13 7 12.180 12.892 0.543 13.527 o
11 13 8 1.458 1.579 0.141 208.823 o
11 13 10 1.159 1.207 0.141 209.663 o
11 15 2 1.056 1.126 0.111 338.818 o
11 15 3 1.152 1.237 0.091 502.676 o
11 15 6 0.906 0.845 0.131 243.694 o
11 15 7 4.651 4.686 0.251 64.127 o
11 15 8 0.625 0.613 0.111 340.818 o
11 17 2 0.351 0.372 0.111 341.485 o
12 0 0 9.048 11.927 0.603 11.203 o
12 0 1 183.754 178.398 8.538 0.055 o
12 0 2 75.683 75.442 4.043 0.248 o
12 0 3 7.038 7.371 0.422 22.839 o
12 0 4 10.211 8.789 0.644 9.887 o
12 0 5 187.157 184.502 8.910 0.051 o
12 0 6 40.786 41.120 1.891 1.121 o
12 0 7 33.113 32.914 1.539 1.694 o
12 0 8 3.181 3.429 0.272 55.984 o
12 0 9 33.525 32.813 1.569 1.631 o
12 0 10 15.414 14.903 0.794 6.408 o
12 0 11 2.808 3.238 0.292 48.716 o
12 0 12 14.496 14.390 0.845 5.706 o
12 0 13 8.879 9.252 0.593 11.633 o
12 0 14 8.298 8.709 0.593 11.663 o
12 2 0 7.651 9.674 0.362 30.419 o
12 2 1 193.122 194.920 6.708 0.086 o
12 2 2 68.386 67.870 2.635 0.567 o
12 2 3 5.030 5.521 0.231 74.688 o
12 2 4 5.998 6.004 0.251 62.852 o
12 2 5 169.311 163.846 5.953 0.110 o
12 2 6 38.704 38.445 1.247 2.470 o
12 2 7 28.869 28.761 0.975 4.066 o
12 2 8 3.332 3.419 0.191 111.370 o
12 2 9 30.226 29.475 1.036 3.617 o
12 2 10 13.989 13.837 0.563 12.479 o
12 2 11 2.610 2.936 0.191 112.456 o
12 2 12 13.478 13.294 0.553 12.964 o
12 2 13 8.546 8.598 0.422 22.584 o
12 2 14 7.525 7.773 0.392 26.274 o
12 2 16 0.329 0.473 0.161 161.479 o
12 4 0 5.996 6.114 0.261 58.298 o
12 4 1 154.292 155.027 5.310 0.138 o
12 4 2 50.353 48.753 1.981 1.007 o
12 4 3 2.386 2.253 0.141 205.735 o
12 4 4 3.197 3.389 0.171 138.436 o
12 4 5 125.305 118.794 4.385 0.203 o
12 4 6 31.605 31.094 1.026 3.656 o
12 4 7 20.113 20.102 0.724 7.445 o
12 4 8 3.362 3.389 0.191 111.351 o
12 4 9 22.377 21.550 0.784 6.331 o
12 4 10 10.313 10.308 0.422 22.217 o
12 4 11 2.072 2.232 0.171 141.088 o
12 4 12 10.760 10.740 0.473 17.865 o
12 4 13 7.536 7.944 0.382 27.609 o
12 4 14 5.616 5.792 0.322 39.257 o
12 6 0 4.544 3.882 0.181 121.232 o
12 6 1 85.957 85.649 3.248 0.372 o
12 6 2 32.139 31.386 1.016 3.714 o
12 6 3 0.787 0.734 0.101 411.361 o
12 6 4 3.256 3.218 0.171 138.485 o
12 6 5 78.074 75.794 3.017 0.433 o
12 6 6 21.551 21.480 0.754 6.836 o
12 6 7 11.527 11.374 0.442 20.108 o
12 6 8 2.927 2.936 0.181 124.621 o
12 6 9 13.725 13.355 0.523 14.392 o
12 6 10 6.149 6.376 0.312 41.502 o
12 6 11 1.403 1.549 0.161 160.349 o
12 6 12 7.367 7.401 0.352 32.439 o
12 6 13 5.995 6.265 0.322 39.092 o
12 6 14 3.465 3.550 0.231 76.563 o
12 8 0 2.640 2.082 0.141 205.229 o
12 8 1 44.994 46.108 1.518 1.675 o
12 8 2 19.094 18.906 0.674 8.578 o
12 8 4 2.559 2.383 0.151 179.246 o
12 8 5 42.457 41.200 1.388 2.001 o
12 8 6 12.593 12.892 0.493 16.226 o
12 8 7 5.169 5.099 0.261 59.059 o
12 8 8 2.224 2.293 0.161 158.687 o
12 8 9 6.949 6.949 0.322 38.714 o
12 8 10 3.036 3.298 0.211 91.919 o
12 8 11 0.828 0.885 0.141 210.313 o
12 8 12 4.382 4.465 0.272 55.379 o
12 8 13 4.264 4.344 0.261 59.690 o
12 8 14 1.781 1.700 0.191 113.680 o
12 10 0 1.220 0.865 0.131 243.130 o
12 10 1 22.563 23.240 0.724 7.306 o
12 10 2 10.506 10.831 0.382 26.728 o
12 10 4 1.508 1.388 0.131 241.900 o
12 10 5 20.130 20.153 0.724 7.444 o
12 10 6 6.385 6.778 0.312 41.360 o
12 10 7 1.768 1.840 0.161 159.721 o
12 10 8 1.456 1.589 0.141 208.818 o
12 10 9 2.910 2.876 0.201 101.443 o
12 10 10 1.260 1.589 0.161 160.482 o
12 10 11 0.428 0.473 0.131 244.472 o
12 10 12 2.280 2.313 0.181 125.782 o
12 10 13 2.676 2.655 0.211 92.416 o
12 12 0 0.496 0.483 0.101 412.681 o
12 12 1 9.856 10.086 0.362 29.828 o
12 12 2 5.175 5.702 0.241 68.671 o
12 12 4 0.807 0.754 0.121 286.083 o
12 12 5 8.208 8.508 0.362 30.425 o
12 12 6 2.819 3.188 0.191 112.101 o
12 12 7 0.457 0.553 0.121 286.783 o
12 12 8 0.805 0.935 0.131 243.779 o
12 12 9 1.013 0.965 0.141 210.041 o
12 12 10 0.441 0.543 0.131 244.433 o
12 12 11 0.192 0.352 0.141 210.960 o
12 14 1 3.787 3.821 0.241 70.191 o
12 14 2 2.264 2.393 0.141 205.886 o
12 14 3 0.153 0.211 0.091 510.443 o
12 14 4 0.366 0.322 0.091 509.900 o
12 14 5 2.867 2.876 0.181 124.741 o
12 14 6 1.106 1.217 0.131 243.007 o
12 14 8 0.380 0.412 0.111 341.420 o
12 14 9 0.292 0.302 0.111 341.591 o
12 16 1 1.317 1.116 0.121 284.388 o
12 16 2 0.884 0.855 0.101 410.714 o
12 16 5 0.858 0.774 0.091 506.656 o
13 1 0 70.604 72.123 3.127 0.408 o
13 1 1 59.691 56.134 2.232 0.789 o
13 1 2 197.601 199.294 6.607 0.088 o
13 1 3 76.495 70.957 2.796 0.502 o
13 1 4 60.553 56.114 2.313 0.737 o
13 1 5 0.292 0.392 0.101 413.196 o
13 1 6 2.615 2.303 0.151 179.211 o
13 1 7 22.510 22.204 0.794 6.171 o
13 1 8 17.089 17.166 0.623 10.056 o
13 1 9 13.600 12.892 0.523 14.421 o
13 1 10 3.726 3.671 0.211 91.177 o
13 1 11 17.288 17.830 0.704 7.984 o
13 1 12 5.167 5.179 0.292 47.784 o
13 1 13 4.908 5.018 0.272 55.040 o
13 1 14 1.705 1.448 0.171 141.931 o
13 1 15 2.055 1.750 0.211 93.047 o
13 1 16 1.977 2.092 0.191 113.398 o
13 3 0 41.947 45.414 1.840 1.175 o
13 3 1 48.660 47.214 1.870 1.126 o
13 3 2 139.654 139.832 5.078 0.152 o
13 3 3 59.558 56.727 2.383 0.697 o
13 3 4 52.603 50.744 1.991 0.992 o
13 3 5 0.310 0.402 0.121 287.008 o
13 3 6 1.362 1.086 0.121 284.297 o
13 3 7 21.057 21.239 0.754 6.854 o
13 3 8 14.066 14.230 0.573 12.051 o
13 3 9 11.688 11.062 0.453 19.273 o
13 3 10 3.235 3.359 0.211 91.736 o
13 3 11 14.249 14.169 0.603 10.925 o
13 3 12 4.528 4.505 0.251 64.246 o
13 3 13 3.969 4.103 0.241 70.007 o
13 3 14 1.392 1.136 0.161 160.578 o
13 3 15 1.745 1.418 0.171 141.907 o
13 5 0 26.888 27.283 0.885 4.915 o
13 5 1 26.907 25.503 0.835 5.492 o
13 5 2 85.858 86.745 3.349 0.351 o
13 5 3 38.625 36.243 1.167 2.800 o
13 5 4 37.968 36.605 1.187 2.718 o
13 5 5 0.490 0.543 0.111 341.149 o
13 5 6 0.645 0.774 0.151 183.467 o
13 5 7 18.075 18.373 0.674 8.630 o
13 5 8 9.784 9.533 0.412 23.401 o
13 5 9 8.090 7.643 0.352 32.239 o
13 5 10 2.432 2.514 0.171 140.415 o
13 5 11 9.591 9.634 0.442 20.468 o
13 5 12 3.531 3.630 0.221 83.443 o
13 5 13 2.609 2.755 0.191 112.547 o
13 5 14 0.928 0.744 0.161 161.127 o
13 5 15 1.259 0.996 0.171 142.493 o
13 7 0 16.238 16.734 0.543 13.076 o
13 7 1 10.566 9.785 0.372 28.203 o
13 7 2 47.470 47.214 1.649 1.428 o
13 7 3 21.059 20.183 0.704 7.810 o
13 7 4 23.567 23.622 0.804 5.985 o
13 7 5 0.609 0.533 0.121 286.598 o
13 7 7 14.023 14.119 0.553 12.899 o
13 7 8 5.768 5.823 0.282 50.764 o
13 7 9 4.620 4.274 0.231 75.525 o
13 7 10 1.597 1.649 0.151 181.887 o
13 7 11 5.297 5.269 0.282 51.082 o
13 7 12 2.443 2.514 0.181 125.490 o
13 7 13 1.400 1.639 0.171 142.125 o
13 7 14 0.510 0.493 0.161 161.414 o
13 9 0 7.344 7.904 0.292 46.312 o
13 9 1 3.050 2.796 0.151 177.452 o
13 9 2 22.524 22.999 0.794 6.161 o
13 9 3 9.551 9.352 0.382 27.093 o
13 9 4 12.909 13.777 0.523 14.441 o
13 9 5 0.501 0.543 0.111 341.130 o
13 9 7 9.633 10.086 0.432 21.354 o
13 9 8 2.888 2.936 0.181 124.674 o
13 9 9 2.267 2.172 0.171 140.876 o
13 9 10 0.919 0.955 0.141 210.166 o
13 9 11 2.421 2.484 0.191 112.859 o
13 9 12 1.492 1.619 0.171 142.051 o
13 9 13 0.616 0.644 0.151 183.529 o
13 11 0 2.835 3.148 0.151 177.562 o
13 11 1 0.497 0.422 0.111 341.239 o
13 11 2 9.288 9.925 0.352 31.623 o
13 11 3 3.644 3.580 0.191 110.869 o
13 11 4 6.129 6.798 0.302 44.138 o
13 11 5 0.316 0.453 0.121 286.981 o
13 11 7 5.738 6.215 0.312 41.654 o
13 11 8 1.264 1.277 0.151 182.622 o
13 11 9 0.931 0.875 0.141 210.200 o
13 11 10 0.455 0.533 0.141 210.791 o
13 11 11 0.910 0.855 0.171 142.753 o
13 11 12 0.810 0.915 0.141 210.315 o
13 13 0 1.019 1.126 0.111 338.954 o
13 13 2 3.355 3.550 0.171 137.985 o
13 13 3 1.171 1.136 0.111 338.364 o
13 13 4 2.526 2.957 0.161 157.535 o
13 13 5 0.164 0.261 0.111 341.716 o
13 13 7 2.936 3.138 0.191 112.000 o
13 13 8 0.500 0.463 0.121 286.785 o
13 15 0 0.333 0.372 0.101 413.144 o
13 15 2 1.050 1.116 0.111 338.860 o
13 15 3 0.310 0.302 0.080 645.373 o
13 15 4 0.922 1.156 0.111 339.242 o
13 15 7 1.291 1.348 0.131 242.472 o
14 0 0 71.709 71.339 3.912 0.265 o
14 0 1 3.255 3.208 0.221 83.786 o
14 0 2 11.605 10.338 0.543 13.646 o
14 0 3 11.985 11.253 0.644 9.795 o
14 0 4 12.898 12.661 0.644 9.739 o
14 0 5 218.629 207.913 10.207 0.039 o
14 0 6 55.567 54.444 3.017 0.446 o
14 0 7 106.894 101.357 5.853 0.119 o
14 0 8 6.452 6.708 0.442 20.939 o
14 0 10 13.607 13.888 0.774 6.779 o
14 0 11 22.385 22.828 1.237 2.652 o
14 0 12 12.053 12.952 0.764 6.991 o
14 0 13 6.097 6.386 0.493 16.977 o
14 0 14 1.967 1.830 0.261 60.878 o
14 0 15 1.835 1.589 0.231 77.770 o
14 2 0 61.004 60.408 2.444 0.662 o
14 2 1 1.612 1.629 0.121 282.506 o
14 2 2 9.016 8.498 0.342 33.686 o
14 2 3 12.144 12.057 0.453 19.150 o
14 2 4 11.466 11.323 0.432 21.008 o
14 2 5 194.231 184.663 6.567 0.090 o
14 2 6 52.402 51.840 1.790 1.210 o
14 2 7 98.744 92.648 3.862 0.265 o
14 2 8 6.019 6.124 0.302 44.299 o
14 2 10 12.212 12.319 0.503 15.680 o
14 2 11 20.293 20.143 0.804 6.104 o
14 2 12 11.028 11.655 0.523 14.667 o
14 2 13 5.688 5.732 0.302 44.480 o
14 2 14 1.818 1.679 0.181 126.528 o
14 2 15 1.676 1.468 0.181 126.726 o
14 4 0 40.699 39.652 1.297 2.281 o
14 4 1 1.031 1.056 0.111 339.036 o
14 4 2 5.747 5.591 0.241 68.274 o
14 4 3 11.725 11.374 0.422 21.910 o
14 4 4 8.230 8.186 0.322 38.085 o
14 4 5 142.426 134.945 5.008 0.155 o
14 4 6 42.671 41.412 1.368 2.054 o
14 4 7 76.265 71.560 3.218 0.385 o
14 4 8 4.762 4.716 0.241 69.315 o
14 4 10 9.005 9.121 0.392 25.913 o
14 4 11 15.163 15.436 0.634 9.888 o
14 4 12 8.491 8.890 0.422 22.573 o
14 4 13 4.626 4.777 0.282 51.437 o
14 4 14 1.442 1.368 0.151 182.327 o
14 4 15 1.280 1.066 0.191 114.146 o
14 6 0 22.859 22.456 0.684 8.113 o
14 6 1 1.866 1.951 0.131 240.051 o
14 6 2 3.469 3.429 0.181 123.474 o
14 6 3 9.735 9.553 0.372 28.427 o
14 6 4 4.617 4.385 0.221 82.239 o
14 6 5 88.977 84.281 3.439 0.334 o
14 6 6 29.731 28.771 0.986 3.978 o
14 6 7 49.053 47.646 1.599 1.507 o
14 6 8 3.166 3.057 0.191 111.785 o
14 6 10 5.547 5.762 0.312 41.778 o
14 6 11 9.372 9.724 0.463 18.811 o
14 6 12 5.537 5.933 0.322 39.259 o
14 6 13 3.293 3.389 0.221 83.698 o
14 6 14 0.982 0.915 0.161 161.029 o
14 8 0 10.628 11.182 0.382 26.660 o
14 8 1 2.001 1.891 0.121 280.324 o
14 8 2 1.453 1.498 0.131 241.900 o
14 8 3 6.791 6.979 0.302 43.854 o
14 8 4 1.855 1.740 0.141 207.807 o
14 8 5 46.190 45.012 1.508 1.693 o
14 8 6 18.281 18.312 0.674 8.623 o
14 8 7 27.112 27.081 0.965 4.182 o
14 8 8 1.832 1.659 0.151 181.489 o
14 8 10 2.828 2.957 0.201 101.479 o
14 8 11 4.808 5.129 0.272 55.059 o
14 8 12 3.066 3.097 0.211 91.974 o
14 8 13 2.061 2.192 0.211 92.929 o
14 10 0 4.116 4.294 0.191 109.704 o
14 10 1 1.493 1.398 0.111 336.365 o
14 10 2 0.366 0.442 0.101 413.017 o
14 10 3 4.028 4.314 0.221 82.784 o
14 10 4 0.509 0.483 0.131 244.400 o
14 10 5 19.927 20.012 0.734 7.263 o
14 10 6 9.931 10.418 0.463 18.719 o
14 10 7 13.033 13.606 0.573 12.130 o
14 10 8 0.929 0.895 0.131 243.617 o
14 10 10 1.200 1.398 0.161 160.638 o
14 10 11 2.069 2.413 0.191 113.196 o
14 10 12 1.451 1.508 0.211 93.366 o
14 12 0 1.364 1.428 0.111 336.910 o
14 12 1 0.984 0.965 0.101 409.999 o
14 12 3 2.083 2.293 0.141 206.535 o
14 12 5 7.292 7.633 0.352 32.430 o
14 12 6 4.713 5.280 0.261 59.249 o
14 12 7 5.438 5.833 0.292 47.568 o
14 12 8 0.407 0.412 0.131 244.510 o
14 12 10 0.434 0.543 0.141 210.801 o
14 14 0 0.384 0.392 0.091 509.749 o
14 14 1 0.544 0.493 0.101 412.546 o
14 14 3 0.962 1.076 0.111 339.241 o
14 14 5 2.276 2.323 0.171 140.765 o
14 14 6 1.968 2.182 0.161 159.186 o
14 14 7 1.992 2.172 0.171 141.223 o
14 16 1 0.245 0.191 0.080 645.769 o
14 16 3 0.402 0.412 0.101 412.975 o
15 1 0 225.107 224.847 7.653 0.066 o
15 1 1 53.182 48.521 1.901 1.084 o
15 1 2 237.561 236.281 7.975 0.061 o
15 1 3 50.343 47.546 1.700 1.343 o
15 1 4 138.686 132.933 4.907 0.162 o
15 1 5 7.773 7.411 0.312 40.758 o
15 1 6 0.057 0.372 0.131 244.698 o
15 1 7 0.016 0.583 0.131 244.677 o
15 1 8 21.112 20.444 0.845 5.547 o
15 1 9 2.110 2.062 0.161 159.060 o
15 1 10 26.733 28.107 1.026 3.732 o
15 1 11 7.910 8.025 0.372 28.983 o
15 1 12 31.902 33.145 1.388 2.068 o
15 1 13 3.838 4.103 0.241 70.083 o
15 1 14 0.672 0.684 0.161 161.298 o
15 1 15 3.603 3.439 0.251 64.974 o
15 3 0 179.802 177.694 6.245 0.100 o
15 3 1 44.206 42.196 1.408 1.938 o
15 3 2 196.489 193.381 6.899 0.082 o
15 3 3 37.732 36.021 1.187 2.722 o
15 3 4 114.576 109.432 4.224 0.220 o
15 3 5 6.355 5.923 0.261 58.136 o
15 3 6 0.011 0.342 0.131 244.713 o
15 3 7 0.000 0.603 0.141 210.979 o
15 3 8 17.610 17.085 0.654 9.183 o
15 3 9 1.507 1.408 0.151 182.205 o
15 3 10 22.213 22.767 0.875 5.151 o
15 3 11 6.570 6.818 0.332 36.613 o
15 3 12 27.573 29.163 1.307 2.347 o
15 3 13 3.282 3.550 0.231 76.672 o
15 3 14 0.504 0.493 0.141 210.772 o
15 3 15 2.961 2.786 0.261 60.491 o
15 5 0 123.980 126.799 4.646 0.182 o
15 5 1 32.252 31.717 1.056 3.455 o
15 5 2 136.423 131.998 4.907 0.162 o
15 5 3 26.995 25.955 0.885 4.926 o
15 5 4 78.635 74.476 3.017 0.433 o
15 5 5 4.514 4.113 0.211 90.183 o
15 5 7 0.029 0.503 0.131 244.686 o
15 5 8 12.002 11.665 0.473 17.684 o
15 5 9 0.796 0.684 0.131 243.970 o
15 5 10 15.364 16.110 0.644 9.574 o
15 5 11 4.562 5.018 0.282 51.416 o
15 5 12 20.684 21.530 0.986 4.133 o
15 5 13 2.410 2.595 0.191 112.817 o
15 7 0 75.443 76.910 2.765 0.511 o
15 7 1 21.454 21.530 0.754 6.838 o
15 7 2 81.225 79.947 3.248 0.375 o
15 7 3 17.097 16.573 0.613 10.382 o
15 7 4 45.602 44.197 1.508 1.697 o
15 7 5 2.618 2.595 0.161 157.708 o
15 7 7 0.110 0.503 0.131 244.656 o
15 7 8 6.749 6.637 0.312 41.262 o
15 7 9 0.290 0.312 0.131 244.615 o
15 7 10 8.881 9.302 0.412 23.557 o
15 7 11 2.671 3.047 0.221 84.205 o
15 7 12 13.496 14.079 0.865 5.465 o
15 7 13 1.524 1.619 0.181 126.784 o
15 9 0 39.920 41.371 1.277 2.346 o
15 9 1 12.906 13.143 0.463 18.213 o
15 9 2 41.946 42.337 1.468 1.803 o
15 9 3 8.587 8.407 0.352 32.018 o
15 9 4 22.709 23.300 0.825 5.740 o
15 9 5 1.172 1.307 0.131 242.778 o
15 9 7 0.183 0.442 0.131 244.636 o
15 9 8 3.218 3.218 0.201 100.998 o
15 9 10 4.311 4.706 0.282 51.563 o
15 9 11 1.336 1.659 0.171 142.172 o
15 9 12 7.676 8.035 0.483 17.527 o
15 11 0 18.317 19.519 0.664 8.842 o
15 11 1 6.867 7.341 0.292 46.664 o
15 11 2 18.882 19.831 0.654 9.063 o
15 11 3 3.626 3.701 0.211 91.254 o
15 11 4 9.789 10.539 0.442 20.389 o
15 11 5 0.425 0.513 0.121 286.844 o
15 11 7 0.196 0.392 0.121 287.096 o
15 11 8 1.327 1.327 0.141 209.292 o
15 11 10 1.765 1.911 0.181 126.474 o
15 11 11 0.581 0.794 0.151 183.503 o
15 13 0 7.298 8.095 0.332 36.232 o
15 13 1 3.199 3.419 0.181 123.893 o
15 13 2 7.454 7.944 0.312 40.777 o
15 13 3 1.333 1.368 0.121 283.947 o
15 13 4 3.691 4.002 0.211 91.056 o
15 13 7 0.154 0.372 0.151 183.783 o
15 13 8 0.489 0.503 0.121 286.775 o
15 15 0 2.536 2.494 0.171 140.278 o
15 15 1 1.303 1.358 0.121 284.058 o
15 15 2 2.601 2.514 0.151 178.990 o
15 15 3 0.417 0.392 0.101 412.964 o
15 15 4 1.238 1.297 0.121 284.352 o
16 0 0 6.407 6.718 0.392 26.514 o
16 0 2 99.524 95.544 5.139 0.153 o
16 0 3 16.027 15.054 0.774 6.719 o
16 0 4 0.845 0.845 0.151 183.287 o
16 0 5 13.578 11.917 0.664 9.167 o
16 0 6 128.222 129.333 7.311 0.076 o
16 0 7 77.934 74.738 4.616 0.191 o
16 0 8 7.134 7.743 0.483 17.574 o
16 0 9 0.381 0.513 0.191 114.517 o
16 0 10 12.979 13.606 0.815 6.154 o
16 0 11 13.337 14.270 0.845 5.723 o
16 0 12 4.855 5.481 0.412 24.265 o
16 0 13 0.850 1.006 0.231 78.075 o
16 0 14 6.093 5.933 0.483 17.694 o
16 2 0 5.540 5.652 0.261 58.703 o
16 2 2 86.865 84.452 3.319 0.357 o
16 2 3 15.356 14.270 0.543 13.246 o
16 2 4 0.676 0.724 0.121 286.347 o
16 2 5 12.368 11.917 0.463 18.357 o
16 2 6 117.388 116.330 4.576 0.188 o
16 2 7 71.278 68.966 2.725 0.530 o
16 2 8 7.051 7.361 0.332 36.408 o
16 2 9 0.322 0.473 0.141 210.882 o
16 2 10 11.978 12.470 0.523 14.566 o
16 2 11 12.302 12.993 0.543 13.515 o
16 2 12 4.390 4.857 0.282 51.508 o
16 2 13 0.799 0.915 0.181 127.400 o
16 2 14 5.515 5.330 0.382 28.111 o
16 2 15 0.410 0.483 0.161 161.452 o
16 4 0 4.370 4.596 0.221 82.366 o
16 4 2 63.518 61.574 2.383 0.692 o
16 4 3 14.522 13.395 0.513 14.852 o
16 4 4 0.605 0.674 0.151 183.526 o
16 4 5 9.686 9.634 0.402 24.534 o
16 4 6 91.748 90.617 3.771 0.279 o
16 4 7 55.507 54.414 1.810 1.175 o
16 4 8 6.502 6.537 0.302 44.048 o
16 4 10 9.444 9.664 0.463 18.807 o
16 4 11 9.572 10.368 0.453 19.566 o
16 4 12 3.258 3.691 0.231 76.644 o
16 4 13 0.668 0.674 0.151 183.485 o
16 4 14 4.085 4.033 0.261 59.838 o
16 6 0 3.545 3.711 0.181 123.131 o
16 6 1 0.306 0.412 0.111 341.514 o
16 6 2 40.981 39.280 1.307 2.248 o
16 6 3 13.058 12.550 0.473 17.514 o
16 6 4 0.708 0.774 0.151 183.422 o
16 6 5 6.740 6.929 0.332 36.553 o
16 6 6 62.092 61.816 2.172 0.824 o
16 6 7 37.371 36.947 1.287 2.342 o
16 6 8 5.368 5.481 0.302 44.625 o
16 6 10 6.381 6.446 0.322 38.958 o
16 6 11 6.262 6.667 0.352 32.758 o
16 6 12 1.997 2.182 0.181 126.138 o
16 6 13 0.500 0.613 0.171 142.982 o
16 6 14 2.471 2.393 0.201 101.999 o
16 8 0 2.562 2.514 0.141 204.799 o
16 8 1 0.490 0.543 0.101 412.622 o
16 8 2 21.764 21.239 0.754 6.833 o
16 8 3 9.875 10.006 0.412 23.349 o
16 8 4 0.642 0.543 0.141 210.653 o
16 8 5 4.109 4.525 0.231 75.810 o
16 8 6 36.127 37.067 1.297 2.316 o
16 8 7 21.637 21.892 0.825 5.779 o
16 8 8 3.963 4.103 0.241 70.010 o
16 8 10 3.695 3.761 0.241 70.257 o
16 8 11 3.494 3.852 0.231 76.453 o
16 8 12 1.015 1.136 0.161 160.919 o
16 8 13 0.333 0.402 0.161 161.488 o
16 10 0 1.609 1.659 0.121 282.460 o
16 10 1 0.491 0.533 0.101 412.632 o
16 10 2 9.578 10.076 0.382 27.011 o
16 10 3 6.327 6.617 0.302 44.099 o
16 10 4 0.454 0.473 0.121 286.834 o
16 10 5 2.183 2.595 0.171 140.706 o
16 10 6 18.179 19.288 0.754 6.962 o
16 10 7 10.836 11.333 0.503 15.840 o
16 10 8 2.558 2.665 0.191 112.642 o
16 10 10 1.837 1.921 0.171 141.549 o
16 10 11 1.681 2.031 0.181 126.495 o
16 12 0 0.894 0.975 0.111 339.629 o
16 12 1 0.366 0.493 0.111 341.385 o
16 12 2 3.709 4.123 0.201 100.002 o
16 12 3 3.577 3.952 0.201 100.245 o
16 12 4 0.283 0.453 0.141 210.905 o
16 12 5 1.019 1.237 0.131 243.158 o
16 12 6 8.027 8.789 0.402 24.871 o
16 12 7 4.764 5.239 0.292 47.912 o
16 12 8 1.408 1.488 0.171 142.183 o
16 12 10 0.788 0.734 0.151 183.377 o
16 14 0 0.430 0.513 0.101 412.805 o
16 14 1 0.214 0.282 0.101 413.386 o
16 14 2 1.302 1.368 0.111 337.329 o
16 14 3 1.785 1.961 0.151 181.305 o
16 14 5 0.417 0.553 0.131 244.448 o
16 14 6 3.132 3.319 0.211 91.835 o
16 14 7 1.855 1.981 0.161 159.503 o
16 16 0 0.177 0.201 0.080 645.929 o
17 1 0 97.610 94.770 3.801 0.273 o
17 1 1 142.736 135.105 5.823 0.117 o
17 1 2 19.655 19.660 0.684 8.307 o
17 1 3 37.794 36.132 1.227 2.560 o
17 1 4 72.653 71.832 2.926 0.462 o
17 1 5 14.088 14.230 0.533 13.821 o
17 1 6 71.329 70.042 2.765 0.515 o
17 1 8 0.600 0.674 0.121 286.508 o
17 1 9 22.986 22.627 0.875 5.138 o
17 1 10 1.014 1.167 0.151 182.975 o
17 1 11 25.395 25.472 1.046 3.625 o
17 1 12 10.317 10.921 0.634 10.161 o
17 1 13 7.331 7.421 0.382 27.688 o
17 3 0 86.189 85.076 3.349 0.352 o
17 3 1 118.052 111.886 4.224 0.219 o
17 3 2 18.829 18.835 0.674 8.590 o
17 3 3 29.059 27.745 0.935 4.399 o
17 3 4 62.551 60.418 2.243 0.777 o
17 3 5 11.301 11.394 0.473 17.774 o
17 3 6 58.704 56.596 1.911 1.055 o
17 3 8 0.358 0.483 0.121 286.929 o
17 3 9 20.250 20.002 0.784 6.405 o
17 3 10 0.867 0.875 0.171 142.770 o
17 3 11 21.425 21.872 0.915 4.749 o
17 3 12 9.390 9.694 0.493 16.652 o
17 3 13 6.276 6.305 0.362 31.044 o
17 3 14 0.348 0.382 0.151 183.725 o
17 5 0 58.856 58.557 2.122 0.867 o
17 5 1 81.162 77.242 3.188 0.389 o
17 5 2 15.876 16.221 0.593 11.131 o
17 5 3 20.245 19.348 0.684 8.290 o
17 5 4 46.135 44.539 1.468 1.781 o
17 5 5 7.004 7.150 0.312 41.085 o
17 5 6 40.173 39.441 1.368 2.072 o
17 5 9 15.495 15.436 0.623 10.177 o
17 5 10 0.633 0.654 0.141 210.615 o
17 5 11 15.219 15.336 0.664 9.051 o
17 5 12 7.686 8.176 0.412 23.803 o
17 5 13 4.610 4.646 0.302 44.975 o
17 7 0 33.328 33.668 1.006 3.751 o
17 7 1 47.193 46.329 1.559 1.588 o
17 7 2 11.816 11.856 0.473 17.694 o
17 7 3 12.346 11.746 0.463 18.370 o
17 7 4 29.512 28.318 0.996 3.909 o
17 7 5 3.274 3.640 0.211 91.587 o
17 7 6 22.902 22.747 0.825 5.742 o
17 7 9 10.346 10.690 0.463 18.660 o
17 7 10 0.402 0.453 0.141 210.846 o
17 7 11 9.170 9.191 0.442 20.543 o
17 7 12 5.611 5.782 0.352 32.969 o
17 7 13 2.918 2.936 0.211 92.146 o
17 9 0 17.041 17.649 0.583 11.372 o
17 9 1 23.544 23.894 0.764 6.575 o
17 9 2 7.851 7.904 0.352 32.266 o
17 9 3 6.143 5.823 0.272 54.245 o
17 9 4 16.542 16.321 0.623 10.105 o
17 9 5 1.127 1.398 0.141 209.564 o
17 9 6 10.893 11.364 0.493 16.457 o
17 9 9 6.088 6.617 0.332 36.763 o
17 9 11 4.746 4.837 0.292 47.984 o
17 9 12 3.626 3.630 0.251 64.921 o
17 11 0 7.585 7.884 0.312 40.739 o
17 11 1 10.114 10.770 0.382 26.822 o
17 11 2 4.533 4.676 0.221 82.182 o
17 11 3 2.613 2.544 0.171 140.126 o
17 11 4 8.118 8.397 0.362 30.458 o
17 11 5 0.266 0.453 0.131 244.589 o
17 11 6 4.371 4.606 0.261 59.581 o
17 11 9 3.154 3.570 0.221 83.732 o
17 13 0 2.883 2.967 0.161 156.796 o
17 13 1 3.766 3.932 0.191 110.467 o
17 13 2 2.252 2.484 0.151 179.838 o
17 13 3 0.981 0.905 0.121 285.557 o
17 13 4 3.492 3.490 0.211 91.465 o
17 13 6 1.501 1.700 0.171 142.005 o
17 15 0 0.960 0.895 0.111 339.548 o
17 15 1 1.234 1.247 0.121 284.439 o
17 15 2 0.972 0.895 0.101 410.225 o
17 15 3 0.321 0.372 0.121 287.012 o
17 15 4 1.323 1.297 0.141 209.324 o
18 0 0 91.547 86.705 5.068 0.158 o
18 0 1 17.040 17.065 0.885 5.163 o
18 0 2 47.323 46.158 2.152 0.865 o
18 0 3 45.244 42.588 1.951 1.049 o
18 0 4 2.171 2.323 0.211 92.832 o
18 0 5 118.060 111.091 6.436 0.098 o
18 0 6 25.651 26.498 1.317 2.326 o
18 0 7 1.626 1.770 0.221 85.002 o
18 0 8 0.819 0.674 0.181 127.439 o
18 0 10 25.849 25.754 1.368 2.165 o
18 0 11 0.420 0.543 0.211 93.745 o
18 0 12 0.753 1.106 0.261 61.120 o
18 2 0 85.826 81.134 3.248 0.373 o
18 2 1 14.640 14.340 0.523 14.271 o
18 2 2 43.462 42.468 1.408 1.941 o
18 2 3 43.728 41.995 1.418 1.916 o
18 2 4 2.146 2.182 0.151 180.392 o
18 2 5 106.204 101.367 4.153 0.229 o
18 2 6 24.005 26.056 0.955 4.315 o
18 2 7 1.567 1.639 0.151 181.942 o
18 2 8 0.787 0.855 0.141 210.373 o
18 2 10 23.810 23.753 0.915 4.700 o
18 2 11 0.366 0.523 0.151 183.690 o
18 2 12 0.667 0.825 0.151 183.434 o
18 4 0 68.407 64.400 2.454 0.650 o
18 4 1 10.405 10.137 0.402 24.362 o
18 4 2 33.922 32.783 1.106 3.149 o
18 4 3 38.438 36.977 1.217 2.591 o
18 4 4 1.940 1.870 0.151 181.106 o
18 4 5 79.642 77.162 3.017 0.432 o
18 4 6 19.698 21.068 0.774 6.563 o
18 4 7 1.435 1.518 0.141 208.925 o
18 4 8 0.769 0.784 0.141 210.428 o
18 4 10 18.557 18.473 0.754 6.963 o
18 4 12 0.464 0.493 0.161 161.432 o
18 6 0 45.717 43.916 1.297 2.234 o
18 6 1 6.680 6.567 0.292 46.919 o
18 6 2 22.538 21.752 0.774 6.478 o
18 6 3 29.973 29.384 1.016 3.755 o
18 6 4 1.571 1.448 0.141 208.730 o
18 6 5 50.981 50.402 1.669 1.382 o
18 6 6 14.176 15.145 0.593 11.257 o
18 6 7 1.235 1.327 0.141 209.447 o
18 6 8 0.760 0.855 0.161 161.199 o
18 6 9 0.083 0.463 0.161 161.536 o
18 6 10 12.251 12.359 0.573 12.209 o
18 6 12 0.253 0.422 0.141 210.925 o
18 8 0 26.432 26.307 0.825 5.617 o
18 8 1 3.611 3.490 0.191 110.971 o
18 8 2 12.680 12.510 0.493 16.236 o
18 8 3 20.709 21.249 0.774 6.534 o
18 8 4 1.196 1.116 0.141 209.675 o
18 8 5 27.485 27.936 1.006 3.865 o
18 8 6 8.922 9.614 0.422 22.467 o
18 8 7 0.944 1.016 0.141 210.097 o
18 8 8 0.654 0.593 0.141 210.623 o
18 8 9 0.170 0.402 0.141 210.959 o
18 8 10 6.914 6.808 0.352 32.606 o
18 10 0 13.299 13.908 0.483 16.735 o
18 10 1 1.612 1.579 0.121 282.600 o
18 10 2 6.105 6.175 0.261 58.213 o
18 10 3 12.559 13.677 0.543 13.474 o
18 10 4 0.835 0.815 0.151 183.308 o
18 10 5 12.548 13.465 0.553 13.020 o
18 10 6 4.900 5.350 0.282 51.224 o
18 10 7 0.629 0.694 0.141 210.602 o
18 10 8 0.478 0.473 0.131 244.432 o
18 10 9 0.206 0.402 0.161 161.519 o
18 10 10 3.362 3.298 0.241 70.550 o
18 12 0 5.796 6.275 0.282 50.651 o
18 12 1 0.609 0.724 0.121 286.455 o
18 12 2 2.571 2.665 0.161 157.731 o
18 12 3 6.628 7.683 0.312 41.124 o
18 12 4 0.511 0.513 0.131 244.385 o
18 12 5 4.958 5.571 0.292 47.789 o
18 12 6 2.349 2.655 0.211 92.628 o
18 12 7 0.368 0.473 0.141 210.859 o
18 12 8 0.302 0.332 0.141 210.923 o
18 14 0 2.221 2.373 0.151 180.030 o
18 14 1 0.190 0.272 0.101 413.418 o
18 14 2 0.969 0.965 0.111 339.403 o
18 14 3 3.054 3.510 0.221 83.820 o
18 14 4 0.273 0.332 0.121 287.064 o
18 14 5 1.714 1.780 0.171 141.756 o
18 14 6 0.982 1.086 0.141 210.002 o
19 1 0 1.842 2.102 0.161 159.435 o
19 1 1 22.262 21.500 0.764 6.649 o
19 1 3 8.353 7.914 0.352 32.140 o
19 1 4 107.057 102.523 4.093 0.235 o
19 1 5 2.857 2.544 0.181 124.970 o
19 1 6 10.252 9.986 0.412 23.290 o
19 1 7 4.456 4.696 0.251 64.234 o
19 1 8 0.782 0.664 0.141 210.475 o
19 1 9 56.663 52.936 2.735 0.539 o
19 1 10 2.093 2.122 0.171 141.131 o
19 1 11 10.151 10.509 0.493 16.558 o
19 1 12 0.237 0.412 0.151 183.756 o
19 1 13 3.212 3.117 0.261 60.354 o
19 3 0 1.983 2.222 0.161 159.133 o
19 3 1 18.002 17.528 0.634 9.706 o
19 3 3 7.613 7.120 0.322 38.476 o
19 3 4 90.568 88.545 3.801 0.275 o
19 3 5 2.414 2.112 0.191 113.032 o
19 3 6 8.406 8.256 0.362 30.409 o
19 3 7 3.624 3.691 0.211 91.260 o
19 3 8 0.803 0.603 0.141 210.485 o
19 3 9 47.845 47.103 1.931 1.062 o
19 3 10 1.861 1.860 0.171 141.555 o
19 3 11 8.734 8.890 0.422 22.541 o
19 3 12 0.253 0.392 0.171 143.073 o
19 3 13 2.693 2.474 0.282 52.334 o
19 5 0 1.536 1.820 0.151 181.847 o
19 5 1 12.569 12.329 0.483 16.901 o
19 5 3 6.444 5.994 0.282 50.416 o
19 5 4 66.213 63.817 2.132 0.846 o
19 5 5 1.880 1.700 0.161 159.665 o
19 5 6 5.941 5.913 0.302 44.363 o
19 5 7 2.383 2.383 0.171 140.577 o
19 5 8 0.849 0.704 0.171 142.823 o
19 5 9 34.429 34.553 1.358 2.141 o
19 5 10 1.462 1.378 0.161 160.379 o
19 5 11 6.484 6.708 0.362 30.970 o
19 5 13 1.896 1.649 0.191 113.619 o
19 7 0 0.965 1.207 0.141 209.944 o
19 7 1 7.487 7.411 0.332 36.276 o
19 7 2 0.703 0.533 0.151 183.508 o
19 7 3 4.962 4.606 0.241 69.216 o
19 7 4 41.734 40.758 1.408 1.953 o
19 7 5 1.320 1.247 0.171 142.354 o
19 7 6 3.572 3.580 0.221 83.432 o
19 7 7 1.279 1.277 0.141 209.416 o
19 7 8 0.835 0.644 0.151 183.376 o
19 7 9 21.218 21.732 0.955 4.379 o
19 7 10 1.017 1.016 0.161 160.965 o
19 7 11 4.159 4.274 0.272 55.503 o
19 9 0 0.574 0.905 0.121 286.365 o
19 9 1 3.704 3.821 0.191 110.627 o
19 9 2 0.731 0.644 0.161 161.277 o
19 9 3 3.349 3.097 0.191 111.545 o
19 9 4 22.521 22.697 0.855 5.376 o
19 9 5 0.807 0.835 0.171 142.811 o
19 9 6 1.786 1.800 0.171 141.670 o
19 9 7 0.567 0.543 0.131 244.317 o
19 9 8 0.708 0.513 0.151 183.512 o
19 9 9 11.262 12.198 0.724 7.793 o
19 9 10 0.627 0.593 0.151 183.538 o
19 9 11 2.308 2.323 0.201 102.145 o
19 11 0 0.291 0.563 0.111 341.438 o
19 11 1 1.553 1.740 0.151 181.885 o
19 11 2 0.586 0.634 0.121 286.558 o
19 11 3 1.938 1.790 0.161 159.520 o
19 11 4 10.507 11.293 0.483 17.158 o
19 11 5 0.443 0.543 0.131 244.431 o
19 11 6 0.768 0.875 0.161 161.188 o
19 11 8 0.512 0.473 0.141 210.773 o
19 11 9 5.218 5.400 0.352 33.072 o
19 13 0 0.121 0.312 0.101 413.469 o
19 13 1 0.560 0.674 0.121 286.567 o
19 13 2 0.374 0.442 0.111 341.408 o
19 13 3 0.949 0.905 0.131 243.577 o
19 13 4 4.282 4.626 0.272 55.386 o
19 13 5 0.222 0.382 0.161 161.518 o
19 13 6 0.295 0.412 0.151 183.738 o
20 0 0 132.994 125.582 7.080 0.081 o
20 0 1 84.026 80.229 4.616 0.191 o
20 0 2 19.824 18.755 0.986 4.156 o
20 0 3 102.827 99.064 5.883 0.118 o
20 0 4 22.842 23.823 1.227 2.690 o
20 0 5 6.894 6.124 0.523 15.070 o
20 0 6 22.943 21.520 1.126 3.180 o
20 0 7 4.798 4.535 0.332 37.282 o
20 0 9 23.961 25.533 1.388 2.111 o
20 0 10 4.142 3.982 0.332 37.452 o
20 0 12 2.011 2.172 0.261 60.831 o
20 2 0 121.951 114.359 4.515 0.193 o
20 2 1 76.740 75.371 3.148 0.400 o
20 2 2 17.017 16.130 0.613 10.398 o
20 2 3 95.072 91.492 3.701 0.288 o
20 2 4 21.189 21.721 0.784 6.360 o
20 2 5 6.584 6.798 0.312 41.291 o
20 2 6 20.662 19.720 0.754 6.887 o
20 2 7 4.351 4.264 0.231 75.729 o
20 2 9 22.116 22.888 0.975 4.191 o
20 2 10 3.828 3.660 0.231 76.300 o
20 2 11 0.118 0.402 0.171 143.093 o
20 2 12 1.799 1.800 0.171 141.656 o
20 4 0 93.721 89.098 3.671 0.293 o
20 4 1 58.667 58.346 1.951 1.014 o
20 4 2 11.763 11.012 0.453 19.267 o
20 4 3 74.927 71.932 2.635 0.561 o
20 4 4 16.706 17.558 0.674 8.700 o
20 4 5 5.361 5.410 0.272 54.741 o
20 4 6 15.151 14.853 0.573 11.964 o
20 4 7 3.201 3.127 0.201 101.058 o
20 4 9 17.412 18.312 0.764 6.820 o
20 4 10 3.018 2.816 0.201 101.373 o
20 4 12 1.290 1.126 0.171 142.423 o
20 6 0 60.137 58.246 1.760 1.221 o
20 6 1 37.838 38.002 1.317 2.238 o
20 6 2 6.925 6.476 0.302 43.899 o
20 6 3 50.408 50.241 1.669 1.384 o
20 6 4 11.207 12.047 0.493 16.398 o
20 6 5 3.603 3.741 0.231 76.419 o
20 6 6 9.078 9.061 0.392 25.905 o
20 6 7 1.897 1.850 0.161 159.535 o
20 6 9 11.728 12.369 0.573 12.237 o
20 6 10 2.039 1.860 0.181 126.252 o
20 6 12 0.740 0.734 0.161 161.247 o
20 8 0 32.341 32.361 1.026 3.639 o
20 8 1 20.709 21.349 0.754 6.862 o
20 8 2 3.184 2.745 0.191 111.942 o
20 8 3 29.236 30.078 1.066 3.436 o
20 8 4 6.569 7.039 0.342 34.537 o
20 8 5 2.135 2.192 0.171 141.033 o
20 8 6 4.438 4.666 0.251 64.252 o
20 8 7 0.924 0.875 0.151 183.205 o
20 8 9 6.784 7.381 0.402 25.146 o
20 8 10 1.192 0.945 0.191 114.212 o
20 10 0 14.745 15.265 0.553 12.807 o
20 10 1 9.652 10.298 0.392 25.683 o
20 10 2 1.106 0.804 0.141 210.024 o
20 10 3 14.732 16.100 0.634 9.893 o
20 10 4 3.406 3.600 0.221 83.545 o
20 10 5 1.130 1.237 0.151 182.807 o
20 10 6 1.778 2.102 0.191 113.543 o
20 10 7 0.378 0.453 0.141 210.859 o
20 10 9 3.385 3.590 0.282 52.028 o
20 10 10 0.609 0.553 0.171 142.955 o
20 12 0 5.796 6.084 0.272 54.358 o
20 12 1 3.848 4.163 0.211 90.831 o
20 12 3 6.492 7.381 0.322 38.788 o
20 12 4 1.561 1.659 0.161 160.102 o
20 12 5 0.521 0.714 0.161 161.363 o
20 12 6 0.590 0.794 0.151 183.497 o
20 14 0 2.006 2.062 0.141 207.043 o
20 14 1 1.317 1.398 0.131 242.354 o
20 14 3 2.531 2.776 0.181 125.231 o
20 14 4 0.639 0.644 0.141 210.614 o
21 1 0 41.514 40.084 1.358 2.092 o
21 1 1 28.727 28.560 1.066 3.449 o
21 1 3 2.903 3.117 0.191 112.048 o
21 1 4 19.870 19.730 0.734 7.269 o
21 1 5 4.070 3.982 0.221 82.887 o
21 1 6 21.977 22.285 0.835 5.637 o
21 1 7 8.246 8.819 0.392 26.072 o
21 1 8 14.942 14.370 0.593 11.236 o
21 1 9 21.368 22.114 0.955 4.375 o
21 1 10 2.656 2.373 0.201 101.865 o
21 1 11 3.577 3.600 0.241 70.364 o
21 1 13 0.765 0.804 0.171 142.839 o
21 3 0 34.624 33.246 1.146 2.940 o
21 3 1 24.973 24.557 0.915 4.675 o
21 3 3 2.130 2.243 0.171 141.008 o
21 3 4 16.317 15.979 0.623 10.124 o
21 3 5 3.559 3.429 0.201 100.546 o
21 3 6 17.798 18.373 0.724 7.546 o
21 3 7 7.251 7.512 0.352 32.453 o
21 3 8 12.778 11.997 0.513 15.068 o
21 3 9 18.220 19.006 0.784 6.465 o
21 3 10 2.070 1.941 0.171 141.269 o
21 3 11 3.003 3.007 0.221 84.015 o
21 3 13 0.620 0.613 0.171 142.940 o
21 5 0 23.669 23.662 0.845 5.463 o
21 5 1 18.179 18.041 0.674 8.633 o
21 5 3 1.280 1.418 0.171 142.318 o
21 5 4 11.019 10.820 0.453 19.371 o
21 5 5 2.627 2.554 0.181 125.248 o
21 5 6 11.844 12.329 0.513 15.132 o
21 5 7 5.496 5.621 0.292 47.586 o
21 5 8 9.377 9.041 0.412 23.502 o
21 5 9 13.309 14.079 0.634 9.995 o
21 5 10 1.229 1.197 0.171 142.441 o
21 5 11 2.130 2.082 0.181 126.057 o
21 7 0 13.382 13.978 0.483 16.722 o
21 7 1 11.248 11.484 0.463 18.515 o
21 7 3 0.601 0.654 0.141 210.642 o
21 7 4 6.142 6.074 0.302 44.264 o
21 7 5 1.657 1.740 0.151 181.716 o
21 7 6 6.477 6.939 0.322 38.858 o
21 7 7 3.604 3.560 0.211 91.336 o
21 7 8 5.943 5.732 0.302 44.393 o
21 7 9 8.367 8.920 0.422 22.587 o
21 7 10 0.545 0.493 0.151 183.613 o
21 7 11 1.280 1.337 0.161 160.589 o
21 9 0 6.376 6.989 0.312 41.328 o
21 9 1 6.060 6.315 0.272 54.159 o
21 9 4 2.852 2.896 0.201 101.485 o
21 9 5 0.920 0.965 0.141 210.159 o
21 9 6 2.896 3.238 0.211 92.050 o
21 9 7 2.063 2.011 0.201 102.415 o
21 9 8 3.279 3.208 0.211 91.762 o
21 9 9 4.556 4.726 0.282 51.472 o
21 11 0 2.573 2.967 0.181 125.062 o
21 11 1 2.813 3.007 0.171 139.444 o
21 11 4 1.118 1.177 0.161 160.815 o
21 11 5 0.452 0.553 0.141 210.786 o
21 11 6 1.063 1.287 0.161 160.815 o
21 11 7 1.024 0.945 0.181 127.294 o
21 11 8 1.587 1.327 0.181 126.844 o
21 13 0 0.886 1.066 0.121 285.590 o
21 13 1 1.116 1.207 0.131 242.997 o
21 13 4 0.377 0.543 0.141 210.835 o
22 0 0 2.838 2.765 0.251 65.415 o
22 0 1 24.571 24.789 1.227 2.678 o
22 0 3 29.045 28.821 1.418 2.003 o
22 0 4 2.639 2.957 0.261 60.563 o
22 0 5 6.300 5.973 0.463 19.226 o
22 0 6 27.886 27.534 1.408 2.037 o
22 0 7 1.194 0.764 0.231 78.035 o
22 0 9 7.739 8.256 0.573 12.509 o
22 0 10 6.629 6.889 0.503 16.274 o
22 0 11 0.819 0.986 0.231 78.081 o
22 0 12 0.696 0.784 0.261 61.139 o
22 2 0 2.480 2.484 0.181 125.464 o
22 2 1 22.674 22.868 0.804 6.016 o
22 2 3 26.603 26.649 0.935 4.447 o
22 2 4 2.609 2.946 0.191 112.451 o
22 2 5 5.891 5.702 0.282 50.736 o
22 2 6 25.698 25.483 0.935 4.470 o
22 2 7 1.077 0.714 0.151 183.138 o
22 2 9 7.032 7.301 0.362 30.806 o
22 2 10 6.010 6.134 0.322 39.106 o
22 2 11 0.762 0.925 0.171 142.811 o
22 2 12 0.645 0.754 0.181 127.486 o
22 4 0 1.632 1.639 0.161 160.028 o
22 4 1 17.635 18.151 0.674 8.652 o
22 4 3 20.434 20.505 0.794 6.243 o
22 4 4 2.502 2.796 0.201 101.820 o
22 4 5 4.796 4.626 0.251 64.062 o
22 4 6 20.186 20.092 0.784 6.405 o
22 4 7 0.776 0.543 0.141 210.538 o
22 4 9 5.289 5.642 0.312 41.869 o
22 4 10 4.466 4.706 0.272 55.296 o
22 4 11 0.607 0.724 0.151 183.509 o
22 4 12 0.514 0.583 0.171 142.982 o
22 6 0 0.800 0.925 0.131 243.795 o
22 6 1 11.523 11.746 0.473 17.732 o
22 6 3 13.225 13.314 0.543 13.440 o
22 6 4 2.254 2.444 0.171 140.713 o
22 6 5 3.387 3.329 0.241 70.530 o
22 6 6 13.559 13.546 0.553 12.950 o
22 6 9 3.301 3.681 0.251 65.053 o
22 6 10 2.717 2.926 0.201 101.588 o
22 6 11 0.412 0.513 0.161 161.447 o
22 8 0 0.289 0.543 0.121 286.965 o
22 8 1 6.428 6.537 0.282 50.293 o
22 8 3 7.299 7.532 0.342 34.296 o
22 8 4 1.828 1.941 0.181 126.407 o
22 8 5 2.082 2.072 0.161 159.096 o
22 8 6 7.778 7.995 0.362 30.578 o
22 8 9 1.713 1.901 0.191 113.659 o
22 8 10 1.363 1.539 0.191 113.984 o
22 10 1 3.088 3.228 0.181 124.195 o
22 10 3 3.486 3.630 0.221 83.476 o
22 10 4 1.292 1.488 0.151 182.449 o
22 10 5 1.118 1.267 0.171 142.496 o
22 10 6 3.816 4.143 0.272 55.655 o
22 10 9 0.742 0.815 0.171 142.847 o
22 12 1 1.279 1.398 0.151 182.526 o
22 12 3 1.465 1.498 0.141 208.887 o
22 12 4 0.783 0.835 0.181 127.422 o
22 12 5 0.527 0.684 0.151 183.570 o
22 12 6 1.609 1.679 0.181 126.697 o
22 14 1 0.459 0.412 0.111 341.306 o
23 1 0 14.590 14.551 0.573 12.009 o
23 1 1 24.374 23.552 0.885 4.997 o
23 1 3 0.621 0.634 0.131 244.214 o
23 1 4 50.993 49.869 1.840 1.154 o
23 1 5 1.061 1.156 0.151 182.930 o
23 1 6 1.817 1.870 0.171 141.598 o
23 1 8 0.754 0.523 0.141 210.567 o
23 1 9 5.048 5.169 0.282 51.202 o
23 1 10 0.358 0.734 0.161 161.426 o
23 1 12 1.663 1.750 0.201 102.725 o
23 3 0 11.848 11.454 0.473 17.712 o
23 3 1 19.625 19.328 0.724 7.474 o
23 3 3 0.663 0.644 0.151 183.498 o
23 3 4 42.907 42.588 1.539 1.648 o
23 3 5 0.814 0.935 0.141 210.300 o
23 3 6 1.488 1.549 0.151 182.131 o
23 3 8 0.731 0.543 0.141 210.579 o
23 3 9 4.436 4.606 0.261 59.551 o
23 3 10 0.327 0.744 0.161 161.436 o
23 3 12 1.427 1.408 0.171 142.202 o
23 5 0 8.066 8.035 0.352 32.197 o
23 5 1 12.860 12.791 0.513 15.027 o
23 5 3 0.691 0.634 0.141 210.574 o
23 5 4 30.923 30.822 1.136 3.031 o
23 5 5 0.486 0.603 0.141 210.747 o
23 5 6 1.015 1.036 0.141 209.992 o
23 5 8 0.662 0.513 0.141 210.649 o
23 5 9 3.406 3.570 0.231 76.592 o
23 5 10 0.271 0.442 0.171 143.065 o
23 7 0 4.567 4.525 0.211 89.905 o
23 7 1 6.852 6.969 0.332 36.517 o
23 7 3 0.660 0.593 0.141 210.618 o
23 7 4 19.076 20.092 0.774 6.591 o
23 7 5 0.220 0.392 0.141 210.943 o
23 7 6 0.573 0.483 0.161 161.391 o
23 7 8 0.546 0.583 0.161 161.381 o
23 7 9 2.290 2.303 0.191 113.057 o
23 7 10 0.203 0.453 0.191 114.546 o
23 9 0 2.111 2.122 0.161 159.010 o
23 9 1 2.965 3.097 0.181 124.460 o
23 9 3 0.552 0.463 0.161 161.404 o
23 9 4 10.021 11.022 0.473 17.924 o
23 9 6 0.264 0.372 0.151 183.754 o
23 9 8 0.400 0.463 0.171 143.033 o
23 9 9 1.352 1.398 0.181 126.981 o
23 11 0 0.804 0.875 0.121 285.971 o
23 11 1 1.055 1.267 0.131 243.059 o
23 11 3 0.391 0.442 0.141 210.855 o
23 11 4 4.524 5.269 0.302 44.912 o
23 13 1 0.315 0.422 0.141 210.898 o
24 0 0 4.819 4.807 0.362 31.398 o
24 0 1 8.019 8.306 0.523 14.961 o
24 0 2 26.050 26.589 1.337 2.258 o
24 0 3 3.172 2.776 0.282 52.190 o
24 0 4 1.265 1.860 0.231 77.895 o
24 0 5 31.470 30.712 1.569 1.639 o
24 0 6 2.839 2.534 0.302 45.607 o
24 0 7 1.247 0.975 0.191 114.182 o
24 0 8 9.986 9.775 0.654 9.584 o
24 0 9 8.009 8.377 0.583 12.077 o
24 0 10 8.794 9.262 0.764 7.071 o
24 0 11 1.531 1.559 0.251 65.946 o
24 0 12 1.310 1.207 0.251 66.018 o
24 2 0 4.249 4.113 0.231 75.858 o
24 2 1 7.191 7.401 0.352 32.479 o
24 2 2 23.942 24.356 0.895 4.893 o
24 2 3 2.973 2.554 0.181 124.814 o
24 2 4 1.285 1.981 0.171 142.074 o
24 2 5 28.753 28.027 1.106 3.220 o
24 2 6 2.648 2.373 0.171 140.202 o
24 2 7 1.083 0.774 0.141 210.073 o
24 2 8 9.271 9.191 0.422 22.448 o
24 2 9 7.421 7.643 0.382 27.654 o
24 2 10 8.066 8.679 0.483 17.475 o
24 2 11 1.374 1.438 0.171 142.233 o
24 4 0 2.837 2.765 0.181 124.853 o
24 4 1 5.245 5.491 0.292 47.701 o
24 4 2 18.753 18.785 0.734 7.317 o
24 4 3 2.492 2.132 0.171 140.600 o
24 4 4 1.349 1.830 0.221 85.086 o
24 4 5 22.154 21.500 0.845 5.516 o
24 4 6 2.141 1.780 0.191 113.392 o
24 4 7 0.694 0.593 0.151 183.495 o
24 4 8 7.454 7.351 0.352 32.425 o
24 4 9 5.903 6.235 0.332 36.856 o
24 4 10 6.232 6.446 0.362 31.040 o
24 4 11 0.996 0.996 0.171 142.664 o
24 6 0 1.377 1.348 0.141 209.187 o
24 6 1 3.147 3.369 0.231 76.802 o
24 6 2 12.624 12.842 0.513 15.045 o
24 6 3 1.881 1.589 0.161 159.738 o
24 6 4 1.381 1.840 0.191 113.888 o
24 6 5 14.536 14.421 0.593 11.257 o
24 6 6 1.497 1.418 0.161 160.318 o
24 6 8 5.216 5.280 0.292 47.749 o
24 6 9 4.042 4.274 0.261 59.805 o
24 6 10 4.070 4.224 0.282 51.726 o
24 8 0 0.461 0.523 0.121 286.796 o
24 8 1 1.556 1.740 0.141 208.465 o
24 8 2 7.293 7.351 0.352 32.462 o
24 8 3 1.249 1.046 0.161 160.757 o
24 8 4 1.255 1.639 0.171 142.249 o
24 8 5 8.120 8.216 0.382 27.481 o
24 8 6 0.904 0.784 0.151 183.263 o
24 8 8 3.178 3.308 0.231 76.801 o
24 8 9 2.398 2.534 0.201 102.002 o
24 10 1 0.642 0.794 0.141 210.546 o
24 10 2 3.629 3.671 0.201 100.343 o
24 10 3 0.725 0.613 0.151 183.467 o
24 10 4 0.975 1.146 0.161 160.947 o
24 10 5 3.903 3.982 0.251 64.708 o
24 10 6 0.468 0.473 0.171 143.013 o
24 12 1 0.227 0.332 0.131 244.641 o
24 12 2 1.569 1.579 0.151 181.986 o
24 12 4 0.644 0.845 0.151 183.443 o
25 1 0 1.393 0.935 0.151 182.674 o
25 1 1 5.051 5.199 0.272 54.935 o
25 1 2 2.636 2.293 0.181 125.394 o
25 1 3 11.208 10.810 0.463 18.558 o
25 1 4 47.337 46.440 1.740 1.294 o
25 1 5 4.837 4.636 0.251 64.035 o
25 1 6 2.393 2.222 0.181 125.709 o
25 1 7 2.205 1.931 0.171 141.111 o
25 1 8 0.167 0.453 0.161 161.522 o
25 1 9 2.804 2.896 0.211 92.243 o
25 1 10 6.888 6.868 0.382 27.805 o
25 1 11 0.987 1.187 0.161 160.921 o
25 3 0 1.152 0.986 0.161 160.868 o
25 3 1 4.445 4.596 0.251 64.268 o
25 3 2 2.418 2.102 0.171 140.722 o
25 3 3 9.836 9.795 0.453 19.568 o
25 3 4 39.958 39.380 1.458 1.840 o
25 3 5 4.047 4.053 0.241 69.976 o
25 3 6 2.038 1.901 0.161 159.294 o
25 3 7 1.853 1.740 0.181 126.473 o
25 3 8 0.184 0.432 0.151 183.768 o
25 3 9 2.403 2.605 0.211 92.610 o
25 3 10 5.877 5.802 0.342 34.831 o
25 3 11 0.783 1.056 0.171 142.767 o
25 5 0 0.787 0.674 0.131 243.989 o
25 5 1 3.273 3.409 0.221 83.705 o
25 5 2 1.988 1.780 0.161 159.457 o
25 5 3 7.526 7.442 0.362 30.691 o
25 5 4 28.316 28.701 1.116 3.166 o
25 5 5 2.859 3.047 0.211 92.149 o
25 5 6 1.495 1.438 0.151 182.201 o
25 5 7 1.309 1.096 0.171 142.420 o
25 5 8 0.205 0.533 0.161 161.504 o
25 5 9 1.768 1.981 0.221 84.909 o
25 5 10 4.283 4.465 0.332 37.385 o
25 7 0 0.437 0.483 0.131 244.461 o
25 7 1 2.050 2.162 0.191 113.314 o
25 7 2 1.454 1.368 0.161 160.393 o
25 7 3 5.048 4.988 0.261 59.151 o
25 7 4 16.962 17.699 0.724 7.581 o
25 7 5 1.717 2.031 0.201 102.618 o
25 7 6 0.951 0.915 0.141 210.151 o
25 7 7 0.780 0.593 0.151 183.436 o
25 7 8 0.208 0.422 0.171 143.078 o
25 7 9 1.126 1.167 0.171 142.526 o
25 9 1 1.130 1.177 0.151 182.842 o
25 9 2 0.941 1.006 0.161 161.026 o
25 9 3 2.991 3.027 0.201 101.302 o
25 9 4 8.694 9.312 0.503 16.076 o
25 9 5 0.885 1.146 0.151 183.115 o
25 9 6 0.527 0.583 0.171 142.978 o
25 11 1 0.544 0.684 0.131 244.270 o
25 11 2 0.530 0.493 0.131 244.377 o
25 11 3 1.562 1.629 0.161 160.120 o
25 11 4 3.837 4.012 0.302 45.255 o
25 11 5 0.401 0.573 0.151 183.664 o
26 0 0 35.131 35.006 1.750 1.317 o
26 0 1 31.823 30.943 1.730 1.356 o
26 0 2 0.573 0.483 0.201 103.329 o
26 0 3 6.608 6.265 0.422 22.943 o
26 0 4 19.446 19.851 1.066 3.569 o
26 0 5 1.638 2.011 0.282 52.564 o
26 0 7 1.932 1.881 0.231 77.690 o
26 0 8 11.509 10.157 0.945 4.622 o
26 0 9 4.545 4.586 0.392 26.856 o
26 0 10 1.438 1.669 0.261 60.993 o
26 2 0 32.530 31.838 1.156 2.916 o
26 2 1 29.419 28.811 1.066 3.441 o
26 2 2 0.618 0.744 0.151 183.495 o
26 2 3 6.084 5.873 0.292 47.311 o
26 2 4 18.058 18.674 0.734 7.339 o
26 2 5 1.568 1.870 0.161 159.964 o
26 2 7 1.831 1.770 0.171 141.638 o
26 2 8 10.546 10.348 0.573 12.347 o
26 2 9 4.269 4.455 0.261 59.663 o
26 2 10 1.340 1.539 0.181 126.943 o
26 4 0 25.739 25.553 0.975 4.130 o
26 4 1 23.144 22.506 0.925 4.623 o
26 4 2 0.694 0.644 0.151 183.478 o
26 4 3 4.762 4.545 0.261 59.408 o
26 4 4 14.441 15.064 0.623 10.235 o
26 4 5 1.359 1.629 0.161 160.354 o
26 4 7 1.558 1.478 0.161 160.214 o
26 4 8 8.138 7.965 0.442 20.722 o
26 4 9 3.545 3.540 0.241 70.396 o
26 4 10 1.085 1.348 0.171 142.491 o
26 6 0 17.430 17.629 0.634 9.731 o
26 6 1 15.499 15.426 0.634 9.874 o
26 6 2 0.720 0.694 0.161 161.269 o
26 6 3 3.183 2.946 0.201 101.162 o
26 6 4 9.974 10.740 0.473 17.943 o
26 6 5 1.059 1.408 0.161 160.765 o
26 6 7 1.186 1.197 0.191 114.159 o
26 6 8 5.319 5.219 0.312 41.919 o
26 6 9 2.603 2.584 0.231 77.280 o
26 8 0 10.216 10.428 0.412 23.260 o
26 8 1 8.937 9.030 0.372 28.665 o
26 8 2 0.663 0.573 0.141 210.624 o
26 8 3 1.824 1.649 0.181 126.535 o
26 8 4 6.008 6.486 0.352 32.827 o
26 8 5 0.745 0.986 0.161 161.168 o
26 8 7 0.801 0.654 0.161 161.235 o
26 8 8 2.966 2.957 0.302 45.547 o
26 10 0 5.225 5.521 0.272 54.779 o
26 10 1 4.477 4.646 0.241 69.527 o
26 10 2 0.517 0.392 0.151 183.652 o
26 10 3 0.904 0.815 0.161 161.120 o
26 10 4 3.188 3.510 0.231 76.738 o
26 10 5 0.474 0.623 0.161 161.403 o
26 12 0 2.342 2.323 0.181 125.710 o
27 1 1 2.774 2.916 0.211 92.257 o
27 1 2 3.332 2.957 0.201 101.015 o
27 1 3 13.464 14.049 0.593 11.324 o
27 1 4 0.473 0.654 0.141 210.738 o
27 1 5 27.456 27.343 1.126 3.125 o
27 1 7 4.097 3.852 0.241 70.006 o
27 1 8 5.098 5.179 0.302 44.756 o
27 1 10 1.558 1.297 0.191 113.943 o
27 3 1 2.191 2.313 0.181 125.877 o
27 3 2 2.676 2.434 0.181 125.262 o
27 3 3 11.523 12.188 0.533 14.089 o
27 3 4 0.436 0.623 0.151 183.635 o
27 3 5 23.149 22.777 1.016 3.870 o
27 3 7 3.560 3.339 0.221 83.528 o
27 3 8 4.282 4.183 0.272 55.473 o
27 5 1 1.330 1.468 0.161 160.471 o
27 5 2 1.727 1.478 0.181 126.683 o
27 5 3 8.460 8.759 0.392 26.041 o
27 5 4 0.360 0.453 0.151 183.707 o
27 5 5 16.513 16.573 0.835 5.793 o
27 5 7 2.707 2.524 0.191 112.566 o
27 5 8 3.032 2.846 0.231 77.006 o
27 7 1 0.615 0.764 0.151 183.490 o
27 7 2 0.895 0.774 0.151 183.274 o
27 7 3 5.353 5.531 0.292 47.655 o
27 7 4 0.265 0.382 0.161 161.508 o
27 7 5 10.012 10.287 0.644 9.872 o
27 7 7 1.795 1.639 0.201 102.683 o
27 7 8 1.819 1.639 0.191 113.675 o
27 9 1 0.213 0.432 0.141 210.938 o
27 9 2 0.372 0.382 0.131 244.545 o
27 9 3 2.936 2.967 0.211 92.121 o
27 9 5 5.192 5.300 0.322 39.424 o
28 0 0 6.399 6.195 0.453 20.060 o
28 0 1 23.600 22.797 1.227 2.688 o
28 0 4 6.441 6.305 0.442 20.957 o
28 0 5 1.641 2.212 0.272 56.496 o
28 0 6 0.877 0.734 0.201 103.236 o
28 0 7 3.449 3.389 0.312 42.560 o
28 0 8 0.898 0.754 0.201 103.228 o
28 2 0 6.031 5.833 0.312 41.623 o
28 2 1 22.012 21.641 0.885 5.054 o
28 2 4 5.998 5.722 0.312 41.650 o
28 2 5 1.422 1.760 0.171 142.050 o
28 2 6 0.805 0.513 0.161 161.272 o
28 2 7 3.181 3.278 0.221 83.812 o
28 2 8 0.829 0.774 0.151 183.330 o
28 4 0 5.022 4.978 0.261 59.168 o
28 4 1 17.861 17.619 0.734 7.360 o
28 4 4 4.834 4.767 0.272 55.127 o
28 4 5 0.921 1.277 0.151 183.014 o
28 4 6 0.619 0.523 0.141 210.679 o
28 4 7 2.494 2.504 0.201 101.940 o
28 4 8 0.649 0.623 0.161 161.324 o
28 6 0 3.680 3.550 0.211 91.273 o
28 6 1 12.607 12.611 0.573 12.183 o
28 6 4 3.377 3.399 0.241 70.518 o
28 6 5 0.432 0.634 0.141 210.773 o
28 6 6 0.399 0.402 0.161 161.469 o
28 6 7 1.665 1.679 0.171 141.857 o
28 8 0 2.375 2.323 0.181 125.674 o
28 8 1 7.743 7.703 0.352 32.316 o
28 8 4 2.061 2.182 0.201 102.362 o
28 8 5 0.132 0.392 0.151 183.785 o
28 10 0 1.348 1.277 0.151 182.515 o
28 10 1 4.145 4.214 0.261 59.773 o
29 1 0 5.540 5.491 0.292 47.594 o
29 1 1 2.853 3.701 0.251 65.233 o
29 1 2 0.523 0.483 0.191 114.494 o
29 1 5 5.353 5.068 0.302 44.694 o
29 1 6 1.696 1.639 0.171 141.846 o
29 1 7 1.779 1.529 0.161 159.912 o
29 3 0 4.842 4.958 0.282 51.323 o
29 3 1 2.410 3.148 0.241 71.007 o
29 3 5 4.655 4.435 0.332 37.319 o
29 3 6 1.503 1.337 0.201 102.904 o
29 3 7 1.524 1.327 0.171 142.153 o
29 5 0 3.713 3.932 0.221 83.191 o
29 5 1 1.744 2.132 0.191 113.557 o
29 5 5 3.515 3.138 0.231 76.656 o
29 5 6 1.175 0.955 0.161 160.861 o
29 5 7 1.119 0.935 0.181 127.250 o
29 7 0 2.497 2.786 0.181 125.266 o
29 7 1 1.084 1.348 0.151 182.797 o
29 7 5 2.303 2.263 0.221 84.613 o
29 7 6 0.809 0.794 0.161 161.188 o
29 9 0 1.472 1.750 0.171 142.009 o
29 9 1 0.580 0.764 0.151 183.513 o
30 0 0 6.462 6.818 0.483 17.647 o
30 0 1 6.779 6.617 0.483 17.634 o
30 0 3 14.761 14.622 1.106 3.363 o
30 0 5 0.754 0.583 0.231 78.119 o
30 0 6 5.808 5.370 0.533 14.571 o
30 2 0 5.845 6.366 0.342 34.778 o
30 2 1 6.273 6.245 0.322 39.018 o
30 2 3 13.569 13.214 0.694 8.394 o
30 2 5 0.710 0.503 0.161 161.324 o
30 2 6 5.327 5.390 0.352 33.054 o
30 4 0 4.297 4.736 0.272 55.358 o
30 4 1 4.990 4.777 0.272 55.057 o
30 4 3 10.526 10.348 0.634 10.163 o
30 4 5 0.594 0.442 0.161 161.391 o
30 4 6 4.115 4.153 0.292 48.281 o
30 6 0 2.557 2.836 0.191 112.559 o
30 6 1 3.430 3.339 0.231 76.647 o
30 6 3 6.898 6.798 0.402 25.169 o
30 6 5 0.444 0.463 0.161 161.444 o
30 8 0 1.242 1.518 0.191 114.054 o
30 8 1 2.045 1.901 0.171 141.323 o
30 8 3 3.841 3.701 0.312 42.454 o
31 1 0 18.444 18.644 0.815 6.015 o
31 1 1 4.145 4.214 0.251 64.528 o
31 1 3 0.218 0.523 0.161 161.502 o
31 1 4 1.166 0.915 0.181 127.231 o
31 1 5 0.490 0.412 0.151 183.660 o
31 1 6 1.498 1.710 0.211 93.308 o
31 3 0 15.718 16.563 0.774 6.710 o
31 3 1 3.613 3.620 0.241 70.339 o
31 3 3 0.161 0.422 0.151 183.775 o
31 3 4 0.969 0.613 0.161 161.144 o
31 3 5 0.413 0.513 0.171 143.023 o
31 3 6 1.226 1.237 0.201 103.042 o
31 5 0 11.432 12.118 0.573 12.259 o
31 5 1 2.732 2.715 0.201 101.665 o
31 5 4 0.672 0.483 0.151 183.544 o
31 7 0 7.142 7.804 0.422 22.803 o
31 7 1 1.798 1.689 0.181 126.540 o
32 0 0 0.183 0.945 0.221 85.423 o
32 0 2 1.277 1.187 0.241 71.628 o
32 0 3 1.777 1.760 0.261 60.923 o
32 0 4 1.254 1.076 0.221 85.223 o
32 0 5 1.628 1.529 0.241 71.515 o
32 0 6 5.038 5.068 0.794 6.602 o
32 2 0 0.178 0.986 0.171 143.023 o
32 2 2 1.174 1.096 0.161 160.802 o
32 2 3 1.611 1.277 0.181 126.845 o
32 2 4 1.141 0.875 0.171 142.612 o
32 2 5 1.520 1.358 0.191 113.947 o
32 4 0 0.162 0.855 0.161 161.472 o
32 4 2 0.911 0.905 0.181 127.355 o
32 4 3 1.198 0.975 0.191 114.203 o
32 4 4 0.861 0.764 0.171 142.802 o
32 6 0 0.136 0.684 0.151 183.745 o
32 6 2 0.597 0.523 0.191 114.475 o
33 1 0 15.120 15.074 0.945 4.572 o
33 1 3 1.353 1.156 0.211 93.464 o
33 3 0 13.062 13.063 0.684 8.651 o
33 3 3 1.128 1.036 0.191 114.220 o
33 5 0 9.765 10.016 0.593 11.585 o
34 0 0 0.293 0.714 0.241 71.784 o
34 2 0 0.258 0.694 0.151 183.699 o
;
_olex2_submission_special_instructions 'No special instructions were received'
loop_
_space_group_symop_id
_space_group_symop_operation_xyz
1 x,y,z
2 -x,y,-z
3 -x,-y,-z
4 x,-y,z
5 x+1/2,y+1/2,z
6 -x+1/2,y+1/2,-z
7 -x+1/2,-y+1/2,-z
8 x+1/2,-y+1/2,z
loop_
_atom_site_label
_atom_site_type_symbol
_atom_site_fract_x
_atom_site_fract_y
_atom_site_fract_z
_atom_site_U_iso_or_equiv
_atom_site_adp_type
_atom_site_occupancy
_atom_site_site_symmetry_order
_atom_site_refinement_flags_posn
_atom_site_refinement_flags_adp
_atom_site_refinement_flags_occupancy
O(1) O 0.304924(12) 0.0 1.06770(2) 0.01625(2) Uani 1.000000 2 S T P
O(2) O 0.178964(10) 0.0 0.368204(19) 0.012897(18) Uani 1.000000 2 S T P
C(1) C 0.302411(12) 0.0 0.87586(2) 0.010942(18) Uani 1.000000 2 S T P
C(2) C 0.210257(11) 0.0 0.73479(2) 0.010018(17) Uani 1.000000 2 S T P
C(3) C 0.243368(11) 0.0 0.53740(2) 0.009572(17) Uani 1.000000 2 S T P
C(4) C 0.361514(11) 0.0 0.52861(2) 0.010943(19) Uani 1.000000 2 S T P
C(5) C 0.401381(13) 0.0 0.75691(3) 0.01442(2) Uani 1.000000 2 S T P
C(6) C 0.100072(13) 0.0 0.80249(3) 0.01414(2) Uani 1.000000 2 S T P
H(2) H 0.2206(5) 0.0 0.2541(12) 0.0287(14) Uiso 1.000000 2 S T P
H(4) H 0.3853(3) 0.1320(7) 0.4484(8) 0.0256(9) Uiso 1.000000 1 . . .
H(5) H 0.4480(4) 0.1290(7) 0.8005(9) 0.0336(10) Uiso 1.000000 1 . . .
H(6a H 0.0441(6) 0.0 0.6643(14) 0.0326(14) Uiso 1.000000 2 S T P
H(6b H 0.0842(4) 0.1285(8) 0.8900(8) 0.0321(11) Uiso 1.000000 1 . . .
loop_
_atom_site_aniso_label
_atom_site_aniso_U_11
_atom_site_aniso_U_22
_atom_site_aniso_U_33
_atom_site_aniso_U_12
_atom_site_aniso_U_13
_atom_site_aniso_U_23
O(1) 0.01552(4) 0.02557(6) 0.00779(3) -0.000000 0.00172(3) 0.000000
O(2) 0.01199(3) 0.01725(4) 0.00937(3) -0.000000 0.00006(2) 0.000000
C(1) 0.01107(4) 0.01424(4) 0.00764(3) -0.000000 0.00152(3) 0.000000
C(2) 0.00944(3) 0.01230(4) 0.00852(3) -0.000000 0.00216(3) 0.000000
C(3) 0.00966(3) 0.01116(4) 0.00801(3) -0.000000 0.00145(2) 0.000000
C(4) 0.00998(4) 0.01408(4) 0.00899(4) -0.000000 0.00233(3) 0.000000
C(5) 0.00988(4) 0.02361(6) 0.00980(4) -0.000000 0.00087(3) 0.000000
C(6) 0.01066(4) 0.01802(5) 0.01417(5) -0.000000 0.00407(3) 0.000000
loop_
_atom_type_symbol
_atom_type_description
_atom_type_scat_dispersion_real
_atom_type_scat_dispersion_imag
_atom_type_scat_source
_atom_type_scat_dispersion_source
C C 0.00347 0.00161
'Clementi & Roetti, C., At. Data Nucl. Data Tables 1974, 14, (177-478); Clementi & Raimondi, J. Chem. Phys., 1963, 38, (2686-2689)'
'Henke, Gullikson and Davis, At. Data and Nucl. Data Tables, 1993, 54, 2'
H H 0.00000 0.00000
'Clementi & Roetti, C., At. Data Nucl. Data Tables 1974, 14, (177-478); Clementi & Raimondi, J. Chem. Phys., 1963, 38, (2686-2689)'
'Henke, Gullikson and Davis, At. Data and Nucl. Data Tables, 1993, 54, 2'
N N 0.00653 0.00323
'Clementi & Roetti, C., At. Data Nucl. Data Tables 1974, 14, (177-478); Clementi & Raimondi, J. Chem. Phys., 1963, 38, (2686-2689)'
'Henke, Gullikson and Davis, At. Data and Nucl. Data Tables, 1993, 54, 2'
O O 0.01158 0.00611
'Clementi & Roetti, C., At. Data Nucl. Data Tables 1974, 14, (177-478); Clementi & Raimondi, J. Chem. Phys., 1963, 38, (2686-2689)'
'Henke, Gullikson and Davis, At. Data and Nucl. Data Tables, 1993, 54, 2'
loop_
_geom_angle_atom_site_label_1
_geom_angle_atom_site_label_2
_geom_angle_atom_site_label_3
_geom_angle
_geom_angle_site_symmetry_1
_geom_angle_site_symmetry_3
_geom_angle_publ_flag
C(2) C(1) O(1) 127.125(14) . . ?
C(5) C(1) O(1) 122.679(15) . . ?
C(5) C(1) C(2) 110.196(12) . . ?
C(3) C(2) C(1) 107.824(12) . . ?
C(6) C(2) C(1) 123.624(13) . . ?
C(6) C(2) C(3) 128.552(14) . . ?
C(2) C(3) O(2) 124.112(13) . . ?
C(4) C(3) O(2) 122.208(12) . . ?
C(4) C(3) C(2) 113.680(12) . . ?
C(5) C(4) C(3) 103.421(11) . . ?
C(4) C(5) C(1) 104.879(12) . . ?
loop_
_geom_bond_atom_site_label_1
_geom_bond_atom_site_label_2
_geom_bond_distance
_geom_bond_site_symmetry_2
_geom_bond_publ_flag
O(1) C(1) 1.21101(18) . ?
O(2) C(3) 1.29299(17) . ?
C(1) C(2) 1.4036(2) . ?
C(1) C(5) 1.4801(2) . ?
C(2) C(3) 1.33840(18) . ?
C(2) C(6) 1.45800(19) . ?
C(3) C(4) 1.46987(18) . ?
C(4) C(5) 1.4950(2) . ?
loop_
_refln_index_h
_refln_index_k
_refln_index_l
_refln_F_squared_meas
_refln_F_squared_sigma
4 0 0 354.22 24.56
6 0 0 13.39 0.66
8 0 0 291.45 14.37
10 0 0 683.7 37.32
12 0 0 11.86 0.6
14 0 0 70.94 3.89
16 0 0 6.68 0.39
18 0 0 86.22 5.04
20 0 0 124.88 7.04
22 0 0 2.75 0.25
24 0 0 4.78 0.36
26 0 0 34.81 1.74
28 0 0 6.16 0.45
30 0 0 6.78 0.48
32 0 0 0.94 0.22
34 0 0 0.71 0.24
36 0 0 0.53 0.23
1 1 0 131.66 9.74
3 1 0 150.59 6.17
5 1 0 27.9 1.13
7 1 0 54.36 2.03
9 1 0 4.41 0.19
11 1 0 3.24 0.16
13 1 0 71.72 3.11
15 1 0 223.59 7.61
17 1 0 94.24 3.78
19 1 0 2.09 0.16
21 1 0 39.86 1.35
23 1 0 14.47 0.57
25 1 0 0.93 0.15
29 1 0 5.46 0.29
31 1 0 18.54 0.81
33 1 0 14.99 0.94
35 1 0 3.66 0.3
2 2 0 4817 253.47
4 2 0 69.27 2.51
6 2 0 6.98 0.27
8 2 0 186.94 7.05
10 2 0 531.95 21.12
12 2 0 9.62 0.36
14 2 0 60.07 2.43
16 2 0 5.62 0.26
18 2 0 80.68 3.23
20 2 0 113.72 4.49
22 2 0 2.47 0.18
24 2 0 4.09 0.23
26 2 0 31.66 1.15
28 2 0 5.8 0.31
30 2 0 6.33 0.34
32 2 0 0.98 0.17
34 2 0 0.69 0.15
36 2 0 0.48 0.26
1 3 0 7.5 0.33
3 3 0 52.71 1.88
5 3 0 5.98 0.23
7 3 0 24.47 0.99
9 3 0 1.09 0.09
13 3 0 45.16 1.83
15 3 0 176.7 6.21
17 3 0 84.6 3.33
19 3 0 2.21 0.16
21 3 0 33.06 1.14
23 3 0 11.39 0.47
25 3 0 0.98 0.16
27 3 0 0.33 0.4
29 3 0 4.93 0.28
31 3 0 16.47 0.77
33 3 0 12.99 0.68
35 3 0 2.99 0.27
0 4 0 6876.72 28118.73
2 4 0 1943.34 90.42
4 4 0 5.09 0.19
6 4 0 12.95 0.39
8 4 0 74.63 2.76
10 4 0 315.68 11.31
12 4 0 6.08 0.26
14 4 0 39.43 1.29
16 4 0 4.57 0.22
18 4 0 64.04 2.44
20 4 0 88.6 3.65
22 4 0 1.63 0.16
24 4 0 2.75 0.18
26 4 0 25.41 0.97
28 4 0 4.95 0.26
30 4 0 4.71 0.27
32 4 0 0.85 0.16
34 4 0 0.61 0.17
36 4 0 0.41 0.29
1 5 0 3.94 0.18
3 5 0 16.63 0.64
5 5 0 3.58 0.16
7 5 0 18.08 0.54
9 5 0 0.14 0.09
11 5 0 0.04 0.09
13 5 0 27.13 0.88
15 5 0 126.09 4.62
17 5 0 58.23 2.11
19 5 0 1.81 0.15
21 5 0 23.53 0.84
23 5 0 7.99 0.35
25 5 0 0.67 0.13
27 5 0 0.38 0.52
29 5 0 3.91 0.22
31 5 0 12.05 0.57
33 5 0 9.96 0.59
35 5 0 2.46 0.27
0 6 0 2567.56 200.58
2 6 0 624.05 29.83
4 6 0 5.98 0.24
6 6 0 0.07 0.06
8 6 0 23.95 0.73
10 6 0 160.16 5.05
12 6 0 3.86 0.18
14 6 0 22.33 0.68
16 6 0 3.69 0.18
18 6 0 43.67 1.29
20 6 0 57.92 1.75
22 6 0 0.92 0.13
24 6 0 1.34 0.14
26 6 0 17.53 0.63
28 6 0 3.53 0.21
30 6 0 2.82 0.19
32 6 0 0.68 0.15
34 6 0 0.34 0.2
1 7 0 3.84 0.22
3 7 0 6.43 0.32
5 7 0 3.32 0.14
7 7 0 16.62 0.53
9 7 0 0.91 0.1
11 7 0 0.54 0.12
13 7 0 16.64 0.54
15 7 0 76.48 2.75
17 7 0 33.48 1
19 7 0 1.2 0.14
21 7 0 13.9 0.48
23 7 0 4.5 0.21
25 7 0 0.48 0.13
27 7 0 0.1 0.16
29 7 0 2.77 0.18
31 7 0 7.76 0.42
33 7 0 6.57 0.43
0 8 0 1059.12 61.42
2 8 0 253.43 12.26
4 8 0 2.55 0.18
6 8 0 1.03 0.07
8 8 0 6.39 0.25
10 8 0 73.82 2.62
12 8 0 2.07 0.14
14 8 0 11.12 0.38
16 8 0 2.5 0.14
18 8 0 26.16 0.82
20 8 0 32.18 1.02
22 8 0 0.54 0.12
24 8 0 0.52 0.12
26 8 0 10.37 0.41
28 8 0 2.31 0.18
30 8 0 1.51 0.19
32 8 0 0.6 0.17
34 8 0 0.67 0.58
1 9 0 1.43 0.14
3 9 0 2.01 0.15
5 9 0 2.38 0.16
7 9 0 12.28 0.44
9 9 0 1.41 0.13
11 9 0 0.41 0.08
13 9 0 7.86 0.29
15 9 0 41.14 1.27
17 9 0 17.55 0.58
19 9 0 0.9 0.12
21 9 0 6.95 0.31
23 9 0 2.11 0.16
25 9 0 0.23 0.13
27 9 0 0.17 0.13
29 9 0 1.74 0.17
31 9 0 4.15 0.3
33 9 0 4.23 0.55
0 10 0 442.19 30.12
2 10 0 110.37 4.81
4 10 0 0.35 0.43
6 10 0 0.7 0.12
8 10 0 1.96 0.15
10 10 0 28 0.89
12 10 0 0.86 0.13
14 10 0 4.27 0.19
16 10 0 1.65 0.12
18 10 0 13.83 0.48
20 10 0 15.18 0.55
22 10 0 0.25 0.14
24 10 0 0.2 0.13
26 10 0 5.49 0.27
28 10 0 1.27 0.15
30 10 0 0.75 0.15
1 11 0 0.68 0.33
3 11 0 0.39 0.1
5 11 0 1.62 0.14
7 11 0 7.58 0.36
9 11 0 1.23 0.12
11 11 0 0.33 0.08
13 11 0 3.13 0.15
15 11 0 19.41 0.66
17 11 0 7.84 0.31
19 11 0 0.56 0.11
21 11 0 2.95 0.18
23 11 0 0.87 0.12
25 11 0 0.3 0.29
27 11 0 0.27 0.14
29 11 0 1.03 0.21
31 11 0 2.2 0.4
0 12 0 172.89 10.98
2 12 0 50.63 2.56
4 12 0 0.11 0.13
6 12 0 0.39 0.11
8 12 0 0.95 0.31
10 12 0 8.89 0.38
12 12 0 0.48 0.1
14 12 0 1.42 0.11
16 12 0 0.97 0.11
18 12 0 6.24 0.28
20 12 0 6.05 0.27
22 12 0 0.21 0.15
24 12 0 0.2 0.23
26 12 0 2.31 0.18
28 12 0 0.54 0.14
1 13 0 0.69 0.33
3 13 0 0.24 0.12
5 13 0 1.02 0.13
7 13 0 4.03 0.24
9 13 0 1.42 0.31
11 13 0 0.13 0.08
13 13 0 1.12 0.11
15 13 0 8.05 0.33
17 13 0 2.95 0.16
19 13 0 0.31 0.1
21 13 0 1.06 0.12
23 13 0 0.26 0.12
25 13 0 0.11 0.13
27 13 0 0.12 0.13
0 14 0 63.44 7.14
2 14 0 20.32 1.45
4 14 0 0.22 0.1
6 14 0 0.21 0.11
8 14 0 0.18 0.42
10 14 0 1.81 0.32
12 14 0 0.22 0.14
14 14 0 0.39 0.09
16 14 0 0.51 0.1
18 14 0 2.36 0.15
20 14 0 2.05 0.14
22 14 0 0.38 0.47
24 14 0 0.12 0.11
26 14 0 0.86 0.27
1 15 0 0.63 0.34
3 15 0 0.31 0.33
5 15 0 0.51 0.12
7 15 0 1.72 0.17
9 15 0 0.41 0.12
11 15 0 0.14 0.21
13 15 0 0.37 0.1
15 15 0 2.48 0.17
17 15 0 0.89 0.11
19 15 0 0.17 0.1
21 15 0 0.45 0.12
23 15 0 0.1 0.13
2 16 0 7.51 0.88
4 16 0 0.36 0.37
6 16 0 0.09 0.13
8 16 0 0.21 0.77
10 16 0 1.17 0.36
12 16 0 0.16 0.13
14 16 0 0.15 0.18
16 16 0 0.2 0.08
18 16 0 0.72 0.1
20 16 0 0.54 0.1
3 17 0 0.66 0.48
5 17 0 0.33 0.29
7 17 0 0.55 0.11
9 17 0 0.15 0.11
11 17 0 0.23 0.51
13 17 0 0.34 0.15
15 17 0 0.71 0.19
17 17 0 0.2 0.11
4 18 0 0.37 0.45
6 18 0 0.16 0.27
8 18 0 0.07 0.2
10 18 0 0.04 0.11
12 18 0 0.07 0.12
14 18 0 0.24 0.25
-36 0 1 0.93 0.25
-34 0 1 2.08 0.23
-32 0 1 1.94 0.24
-30 0 1 1.1 0.33
-28 0 1 13.81 0.72
-26 0 1 11.59 0.67
-24 0 1 0.06 0.2
-22 0 1 5.44 0.39
-20 0 1 0.01 0.92
-18 0 1 28.47 1.35
-16 0 1 38.31 1.75
-14 0 1 1.26 0.15
-12 0 1 11.18 0.56
-10 0 1 161.4 7.76
-8 0 1 103.12 5.1
-6 0 1 24.02 1.17
-4 0 1 2.43 0.12
-2 0 1 373.16 23.44
0 0 1 228.91 16.37
2 0 1 0.71 0.09
4 0 1 165.27 9.03
6 0 1 14.64 1.13
8 0 1 1216.92 64.14
10 0 1 1123.75 59.67
12 0 1 177.4 8.49
14 0 1 3.19 0.22
16 0 1 0.14 0.15
18 0 1 16.97 0.88
20 0 1 79.78 4.59
22 0 1 24.65 1.22
24 0 1 8.26 0.52
26 0 1 30.77 1.72
28 0 1 22.67 1.22
30 0 1 6.58 0.48
32 0 1 0.02 1.19
34 0 1 0.03 1.1
36 0 1 0.06 1.5
-35 1 1 0.11 0.16
-33 1 1 6.57 0.31
-31 1 1 0.48 0.14
-29 1 1 6.94 0.32
-27 1 1 21.53 0.76
-25 1 1 54.71 1.86
-23 1 1 14.35 0.57
-21 1 1 88.71 3.78
-19 1 1 119.97 5.07
-17 1 1 10.07 0.44
-15 1 1 59.41 2.88
-13 1 1 82.65 3.17
-11 1 1 604.99 25.65
-9 1 1 106.74 3.73
-7 1 1 3280.41 129.09
-5 1 1 5925.31 213.81
-3 1 1 9.02 0.24
-1 1 1 1344.15 83.51
1 1 1 883.36 52.29
3 1 1 3110.98 167.59
5 1 1 1067.04 40.57
7 1 1 3.67 0.16
9 1 1 0.44 0.14
11 1 1 1.35 0.11
13 1 1 55.82 2.22
15 1 1 48.25 1.89
17 1 1 134.35 5.79
19 1 1 21.38 0.76
21 1 1 28.4 1.06
23 1 1 23.42 0.88
25 1 1 5.17 0.27
27 1 1 2.9 0.21
29 1 1 3.68 0.25
31 1 1 4.19 0.25
35 1 1 0.04 0.2
-36 2 1 0.9 0.19
-34 2 1 1.96 0.16
-32 2 1 1.72 0.15
-30 2 1 0.5 0.15
-28 2 1 12.51 0.47
-26 2 1 10.59 0.45
-24 2 1 0.23 0.27
-22 2 1 5.34 0.24
-20 2 1 0.04 0.14
-18 2 1 28.75 0.98
-16 2 1 31.79 1.04
-14 2 1 1.14 0.09
-12 2 1 11.79 0.37
-10 2 1 150.8 4.61
-8 2 1 67.8 2.22
-6 2 1 23.71 0.85
-4 2 1 6.45 0.2
-2 2 1 199.87 8.67
0 2 1 133.21 7.66
2 2 1 16.3 0.73
4 2 1 90.67 3.52
6 2 1 55.52 2.06
8 2 1 792.96 30.07
10 2 1 988.75 37.62
12 2 1 193.83 6.67
14 2 1 1.62 0.12
16 2 1 0.05 0.11
18 2 1 14.26 0.52
20 2 1 74.95 3.13
22 2 1 22.74 0.8
24 2 1 7.36 0.35
26 2 1 28.65 1.06
28 2 1 21.52 0.88
30 2 1 6.21 0.32
32 2 1 0.08 0.26
34 2 1 0.11 0.28
36 2 1 0.25 0.33
-37 3 1 0.42 0.31
-35 3 1 0.17 0.2
-33 3 1 5.37 0.25
-31 3 1 0.4 0.15
-29 3 1 5.52 0.27
-27 3 1 17.84 0.67
-25 3 1 47.31 1.48
-23 3 1 13.4 0.47
-21 3 1 74.85 2.65
-19 3 1 99.62 3.55
-17 3 1 6.95 0.28
-15 3 1 44.04 1.37
-13 3 1 67.52 2.33
-11 3 1 542.72 17.99
-9 3 1 35.23 1.27
-7 3 1 1896.13 65.69
-5 3 1 1880.32 59.97
-3 3 1 159.45 5.63
-1 3 1 641.62 36.94
1 3 1 80.16 4.3
3 3 1 1142 46.19
5 3 1 538.89 20.9
7 3 1 3.52 0.16
9 3 1 4.45 0.19
11 3 1 0.05 0.1
13 3 1 46.95 1.86
15 3 1 41.96 1.4
17 3 1 111.26 4.2
19 3 1 17.43 0.63
21 3 1 24.42 0.91
23 3 1 19.22 0.72
25 3 1 4.57 0.25
27 3 1 2.3 0.18
29 3 1 3.13 0.24
31 3 1 3.6 0.24
33 3 1 0.03 1.12
35 3 1 0.12 0.23
-36 4 1 0.63 0.22
-34 4 1 1.57 0.16
-32 4 1 1.47 0.17
-30 4 1 0.41 0.15
-28 4 1 9.5 0.38
-26 4 1 8.52 0.36
-24 4 1 0.13 0.18
-22 4 1 4.18 0.21
-20 4 1 0.32 0.14
-18 4 1 26.23 0.8
-16 4 1 22.92 0.7
-14 4 1 0.51 0.11
-12 4 1 10.5 0.34
-10 4 1 107.38 3.4
-8 4 1 37.64 1.4
-6 4 1 11.15 0.33
-4 4 1 10.66 0.35
-2 4 1 77.55 4.06
0 4 1 45.45 3.39
2 4 1 10.92 0.47
4 4 1 23.97 1.05
6 4 1 52.19 1.96
8 4 1 404.63 14.95
10 4 1 651.66 26.5
12 4 1 154.16 5.28
14 4 1 1.05 0.11
16 4 1 0.16 0.11
18 4 1 10.08 0.4
20 4 1 58.02 1.94
22 4 1 18.05 0.67
24 4 1 5.46 0.29
26 4 1 22.38 0.92
28 4 1 17.52 0.73
30 4 1 4.75 0.27
32 4 1 0.47 0.68
36 4 1 0.06 0.29
-35 5 1 0.45 1.24
-33 5 1 3.95 0.24
-31 5 1 0.18 0.14
-29 5 1 3.71 0.23
-27 5 1 12.93 0.5
-25 5 1 34.68 1.15
-23 5 1 10.89 0.41
-21 5 1 55.05 1.65
-19 5 1 72.12 2.42
-17 5 1 3.15 0.16
-15 5 1 27.3 0.83
-13 5 1 45.27 1.43
-11 5 1 342.81 10.84
-9 5 1 29.35 0.9
-7 5 1 891.55 31.83
-5 5 1 729.25 26.27
-3 5 1 53.86 2.1
-1 5 1 233.82 13.31
1 5 1 56.41 2.26
3 5 1 351.23 14.89
5 5 1 209.39 7.88
7 5 1 0.45 0.08
9 5 1 10.35 0.37
11 5 1 0.54 0.1
13 5 1 25.36 0.83
15 5 1 31.54 1.05
17 5 1 76.81 3.17
19 5 1 12.26 0.48
21 5 1 17.94 0.67
23 5 1 12.72 0.51
25 5 1 3.39 0.22
27 5 1 1.46 0.16
29 5 1 2.12 0.19
31 5 1 2.7 0.2
33 5 1 0.01 0.84
35 5 1 0.03 0.15
-34 6 1 1.28 0.19
-32 6 1 1.08 0.18
-30 6 1 0.22 0.15
-28 6 1 6.01 0.27
-26 6 1 6.22 0.3
-24 6 1 0.26 0.15
-22 6 1 2.38 0.16
-20 6 1 0.36 0.13
-18 6 1 20.49 0.65
-16 6 1 16.27 0.54
-14 6 1 0.21 0.1
-12 6 1 6.72 0.25
-10 6 1 59.72 2.11
-8 6 1 23.32 0.7
-6 6 1 2.14 0.14
-4 6 1 1.89 0.12
-2 6 1 36.44 2.13
0 6 1 25.86 1.89
2 6 1 0.24 0.06
4 6 1 6.53 0.22
6 6 1 17.83 0.62
8 6 1 261.36 9.71
10 6 1 373.67 13.82
12 6 1 85.17 3.23
14 6 1 1.94 0.13
16 6 1 0.41 0.11
18 6 1 6.53 0.29
20 6 1 37.79 1.31
22 6 1 11.68 0.47
24 6 1 3.35 0.23
26 6 1 15.34 0.63
28 6 1 12.54 0.57
30 6 1 3.32 0.23
32 6 1 0.41 0.57
34 6 1 0.1 0.22
-33 7 1 2.6 0.24
-31 7 1 0.31 0.2
-29 7 1 2.02 0.17
-27 7 1 8.17 0.35
-25 7 1 22.81 0.82
-23 7 1 8.12 0.33
-21 7 1 34.78 1.08
-19 7 1 45.63 1.35
-17 7 1 0.88 0.12
-15 7 1 14.71 0.48
-13 7 1 26.94 0.81
-11 7 1 186.61 5.85
-9 7 1 24.48 0.74
-7 7 1 397.05 14.98
-5 7 1 349.34 12.79
-3 7 1 11.66 0.47
-1 7 1 91.13 5.15
1 7 1 67.94 2.88
3 7 1 96.21 3.24
5 7 1 89.81 3.14
7 7 1 0.26 0.07
9 7 1 9.68 0.35
11 7 1 1.33 0.15
13 7 1 9.73 0.37
15 7 1 21.41 0.75
17 7 1 46.07 1.55
19 7 1 7.37 0.33
21 7 1 11.42 0.46
23 7 1 6.93 0.33
25 7 1 2.15 0.19
27 7 1 0.76 0.15
29 7 1 1.34 0.15
31 7 1 1.68 0.18
33 7 1 0.2 0.21
-34 8 1 0.78 0.24
-32 8 1 0.63 0.15
-30 8 1 0.34 0.5
-28 8 1 3.26 0.19
-26 8 1 3.77 0.22
-24 8 1 0.17 0.14
-22 8 1 1.32 0.15
-20 8 1 0.55 0.12
-18 8 1 14.34 0.5
-16 8 1 10.13 0.37
-12 8 1 3.65 0.16
-10 8 1 31.59 0.96
-8 8 1 11.54 0.42
-6 8 1 0.94 0.21
-4 8 1 0.92 0.1
-2 8 1 18.53 0.77
0 8 1 17.6 0.94
2 8 1 1.11 0.11
4 8 1 1.83 0.09
6 8 1 8.65 0.29
8 8 1 155.03 5.01
10 8 1 202.8 6.24
12 8 1 45.85 1.51
14 8 1 1.88 0.12
16 8 1 0.54 0.1
18 8 1 3.47 0.19
20 8 1 21.23 0.75
22 8 1 6.5 0.28
24 8 1 1.73 0.14
26 8 1 8.98 0.37
28 8 1 7.66 0.35
30 8 1 1.89 0.17
32 8 1 0.09 0.15
34 8 1 0.1 0.28
-33 9 1 1.57 0.27
-31 9 1 0.43 0.26
-29 9 1 0.78 0.15
-27 9 1 4.25 0.23
-25 9 1 12.96 0.49
-23 9 1 5.38 0.25
-21 9 1 18.72 0.66
-19 9 1 24.86 0.81
-17 9 1 0.07 0.1
-15 9 1 6.06 0.25
-13 9 1 15.05 0.48
-11 9 1 94.24 3.2
-9 9 1 12.21 0.45
-7 9 1 172.92 6.85
-5 9 1 150.16 6.14
-3 9 1 6.02 0.28
-1 9 1 45.97 2.59
1 9 1 43.95 1.96
3 9 1 27.34 1.21
5 9 1 37.57 1.42
7 9 1 0.68 0.08
9 9 1 6.6 0.25
11 9 1 1.17 0.11
13 9 1 2.78 0.15
15 9 1 13.07 0.46
17 9 1 23.76 0.76
19 9 1 3.8 0.19
21 9 1 6.28 0.27
23 9 1 3.08 0.18
25 9 1 1.17 0.15
27 9 1 0.43 0.14
29 9 1 0.76 0.15
31 9 1 0.97 0.16
-32 10 1 0.64 0.21
-30 10 1 0.29 0.22
-28 10 1 1.42 0.18
-26 10 1 1.99 0.15
-24 10 1 0.18 0.12
-22 10 1 0.63 0.12
-20 10 1 0.48 0.11
-18 10 1 9.22 0.34
-16 10 1 5.28 0.22
-12 10 1 1.81 0.11
-10 10 1 14.5 0.53
-8 10 1 4.6 0.28
-6 10 1 0.62 0.42
-4 10 1 0.8 0.12
-2 10 1 9.81 0.41
0 10 1 10.95 0.59
2 10 1 1.48 0.13
4 10 1 0.38 0.07
6 10 1 4.92 0.2
8 10 1 77.74 2.81
10 10 1 101.06 3.55
12 10 1 23.11 0.72
14 10 1 1.39 0.11
16 10 1 0.53 0.1
18 10 1 1.57 0.12
20 10 1 10.24 0.39
22 10 1 3.21 0.18
24 10 1 0.79 0.14
26 10 1 4.62 0.24
28 10 1 4.19 0.26
30 10 1 0.98 0.17
32 10 1 0.07 0.28
-29 11 1 0.36 0.14
-27 11 1 1.94 0.16
-25 11 1 6.16 0.31
-23 11 1 3.02 0.17
-21 11 1 8.58 0.35
-19 11 1 11.59 0.43
-17 11 1 0.31 0.58
-15 11 1 2.05 0.14
-13 11 1 7.59 0.32
-11 11 1 42.17 1.56
-9 11 1 5.18 0.31
-7 11 1 69.72 3.39
-5 11 1 62.26 3.55
-3 11 1 3.43 0.19
-1 11 1 21.76 0.91
1 11 1 22.17 1.1
3 11 1 6.77 0.36
5 11 1 14.35 0.51
7 11 1 0.82 0.1
9 11 1 3.61 0.18
11 11 1 0.83 0.1
13 11 1 0.42 0.11
15 11 1 7.3 0.29
17 11 1 10.71 0.38
19 11 1 1.73 0.15
21 11 1 2.99 0.17
23 11 1 1.26 0.13
25 11 1 0.68 0.13
27 11 1 0.19 0.15
29 11 1 0.51 0.15
-28 12 1 0.43 0.14
-26 12 1 0.86 0.13
-24 12 1 0.21 0.13
-22 12 1 0.29 0.13
-20 12 1 0.4 0.11
-18 12 1 5.22 0.24
-16 12 1 2.6 0.15
-14 12 1 0.34 0.5
-12 12 1 0.71 0.11
-10 12 1 5.9 0.3
-8 12 1 1.52 0.14
-6 12 1 0.41 0.54
-4 12 1 0.5 0.11
-2 12 1 4.78 0.27
0 12 1 6.68 0.32
2 12 1 2.21 0.32
4 12 1 0.19 0.12
6 12 1 2.39 0.13
8 12 1 36.58 1.39
10 12 1 45.32 1.47
12 12 1 10.03 0.36
14 12 1 0.96 0.1
16 12 1 0.49 0.11
18 12 1 0.72 0.12
20 12 1 4.14 0.21
22 12 1 1.39 0.15
24 12 1 0.33 0.13
26 12 1 2.06 0.18
28 12 1 1.8 0.21
-27 13 1 0.7 0.12
-25 13 1 2.44 0.15
-23 13 1 1.47 0.12
-21 13 1 3.37 0.17
-19 13 1 4.45 0.21
-17 13 1 0.2 0.09
-15 13 1 0.53 0.09
-13 13 1 3.25 0.17
-11 13 1 15.54 0.64
-9 13 1 1.74 0.16
-7 13 1 24.49 1.22
-5 13 1 23.4 1.26
-3 13 1 1.89 0.17
-1 13 1 8.9 0.53
1 13 1 9.45 0.61
3 13 1 0.97 0.31
5 13 1 4.99 0.27
7 13 1 0.64 0.12
9 13 1 1.7 0.21
11 13 1 0.36 0.09
13 13 1 0.4 0.45
15 13 1 3.4 0.18
17 13 1 3.91 0.19
19 13 1 0.67 0.12
21 13 1 1.2 0.13
23 13 1 0.42 0.14
25 13 1 0.24 0.15
27 13 1 0.17 0.22
-26 14 1 0.34 0.17
-24 14 1 0.19 0.2
-22 14 1 0.2 0.23
-20 14 1 0.21 0.1
-18 14 1 2.22 0.15
-16 14 1 1.01 0.11
-14 14 1 0.03 0.12
-12 14 1 0.42 0.15
-10 14 1 1.9 0.17
-8 14 1 0.45 0.14
-6 14 1 0.51 0.73
-4 14 1 0.32 0.11
-2 14 1 2.04 0.17
0 14 1 3.81 0.58
2 14 1 1.14 0.23
4 14 1 0.3 0.56
6 14 1 1.05 0.13
8 14 1 14.4 0.68
10 14 1 17.32 0.69
12 14 1 3.8 0.24
14 14 1 0.49 0.1
16 14 1 0.28 0.1
18 14 1 0.27 0.1
20 14 1 1.39 0.13
22 14 1 0.41 0.11
24 14 1 0.13 0.13
26 14 1 0.56 0.26
-23 15 1 0.53 0.11
-21 15 1 0.95 0.1
-19 15 1 1.46 0.13
-17 15 1 0.18 0.08
-15 15 1 0.16 0.07
-13 15 1 1.11 0.14
-11 15 1 4.85 0.35
-9 15 1 0.46 0.14
-7 15 1 7.63 0.55
-5 15 1 7.71 0.49
-3 15 1 0.89 0.13
-1 15 1 3.46 0.4
1 15 1 3.6 0.44
3 15 1 0.24 0.26
5 15 1 1.43 0.29
7 15 1 0.35 0.1
9 15 1 1.08 0.3
11 15 1 0.74 0.47
13 15 1 0.17 0.14
15 15 1 1.35 0.12
17 15 1 1.24 0.12
19 15 1 0.24 0.11
21 15 1 0.41 0.11
23 15 1 0.09 0.1
-20 16 1 0.57 0.45
-18 16 1 0.76 0.1
-16 16 1 0.5 0.23
-14 16 1 0.1 0.14
-12 16 1 0.32 0.28
-10 16 1 0.52 0.14
-8 16 1 0.18 0.14
-6 16 1 0.29 0.62
-4 16 1 0.16 0.09
-2 16 1 1.11 0.38
0 16 1 1.55 0.29
2 16 1 0.9 0.52
4 16 1 0.16 0.43
6 16 1 0.54 0.29
8 16 1 4.82 0.36
10 16 1 5.47 0.34
12 16 1 1.11 0.12
14 16 1 0.19 0.08
16 16 1 0.38 0.33
18 16 1 0.13 0.12
20 16 1 0.42 0.11
-17 17 1 0.07 0.15
-15 17 1 0.16 0.22
-13 17 1 0.34 0.14
-11 17 1 1.3 0.16
-9 17 1 0.2 0.12
-7 17 1 1.86 0.16
-5 17 1 1.86 0.21
-3 17 1 0.65 0.31
-1 17 1 1.03 0.34
1 17 1 1.85 0.54
5 17 1 0.77 0.3
7 17 1 0.48 0.37
9 17 1 0.16 0.1
11 17 1 0.42 0.24
13 17 1 0.12 0.16
15 17 1 0.42 0.08
17 17 1 0.32 0.08
-14 18 1 0.11 0.21
-12 18 1 0.13 0.52
-10 18 1 0.2 0.18
-8 18 1 0.07 0.11
-6 18 1 0.31 0.44
-4 18 1 0.31 0.4
-2 18 1 0.5 0.42
6 18 1 0.59 0.33
8 18 1 1.52 0.42
10 18 1 1.18 0.14
12 18 1 0.36 0.11
14 18 1 0.48 0.81
-36 0 2 4.33 0.44
-34 0 2 0.32 0.43
-32 0 2 0.94 0.19
-30 0 2 1.45 0.24
-28 0 2 1.25 0.18
-26 0 2 54.72 2.21
-24 0 2 21.5 0.91
-22 0 2 0.66 0.15
-18 0 2 173.54 7.21
-16 0 2 356.97 14.78
-14 0 2 2.39 0.16
-12 0 2 99.87 4.25
-10 0 2 39.14 1.88
-8 0 2 13.66 0.47
-6 0 2 423.93 16.3
-4 0 2 835.39 45.3
-2 0 2 3589.86 250.93
0 0 2 26.54 1.65
2 0 2 51.28 2.68
4 0 2 100.63 5.27
6 0 2 169.08 8.75
8 0 2 127.56 6.07
10 0 2 737.43 53
12 0 2 75.02 4.02
14 0 2 10.28 0.54
16 0 2 95.01 5.11
18 0 2 45.9 2.14
20 0 2 18.65 0.98
22 0 2 0.17 0.2
24 0 2 26.44 1.33
26 0 2 0.48 0.2
28 0 2 0.09 0.28
30 0 2 0.33 1.68
32 0 2 1.18 0.24
-35 1 2 1.97 0.17
-33 1 2 0.89 0.14
-29 1 2 0.38 0.12
-25 1 2 10.44 0.37
-23 1 2 28.11 0.81
-21 1 2 7.8 0.28
-19 1 2 16.39 0.48
-17 1 2 128.73 3.94
-15 1 2 71.56 2.3
-13 1 2 8.81 0.28
-11 1 2 0.3 0.07
-9 1 2 112.5 2.95
-7 1 2 32.01 0.98
-5 1 2 78.21 2.15
-3 1 2 443.1 17.92
-1 1 2 1054.85 47.88
1 1 2 9.97 0.5
3 1 2 2445.29 118.38
5 1 2 1012.68 39.04
7 1 2 134.12 4.74
9 1 2 257.56 9.44
11 1 2 30.65 1.02
13 1 2 198.18 6.57
15 1 2 234.96 7.93
17 1 2 19.55 0.68
19 1 2 0.12 0.15
21 1 2 0.01 0.99
23 1 2 0.03 0.14
25 1 2 2.28 0.18
27 1 2 2.94 0.2
29 1 2 0.48 0.19
31 1 2 0.41 0.18
33 1 2 0.4 0.19
35 1 2 0.34 1.05
-36 2 2 4.12 0.36
-34 2 2 0.1 0.16
-32 2 2 0.74 0.14
-30 2 2 1.32 0.15
-28 2 2 1.2 0.15
-26 2 2 50.04 1.42
-24 2 2 20.37 0.62
-22 2 2 0.6 0.11
-20 2 2 0.34 0.5
-18 2 2 160.71 4.78
-16 2 2 335.28 9.51
-14 2 2 4 0.16
-12 2 2 66.23 2.1
-10 2 2 78.8 2.24
-8 2 2 0.05 0.06
-6 2 2 273.84 7.12
-4 2 2 744.71 26.19
-2 2 2 2126.89 103.21
0 2 2 9.3 0.51
2 2 2 61.99 2.33
4 2 2 24.26 1.02
6 2 2 103.87 3.48
8 2 2 94.33 3.31
10 2 2 718.41 26.55
12 2 2 67.49 2.62
14 2 2 8.45 0.34
16 2 2 83.98 3.3
18 2 2 42.23 1.4
20 2 2 16.04 0.61
22 2 2 0.04 0.13
24 2 2 24.22 0.89
26 2 2 0.74 0.15
28 2 2 0.13 0.27
30 2 2 0.2 0.67
32 2 2 1.09 0.16
36 2 2 3.02 0.47
-35 3 2 1.66 0.17
-33 3 2 0.8 0.14
-31 3 2 0.05 1.45
-29 3 2 0.21 0.12
-27 3 2 0.1 0.17
-25 3 2 9.89 0.36
-23 3 2 24.84 0.74
-21 3 2 6.38 0.25
-19 3 2 14.82 0.45
-17 3 2 108.89 3.39
-15 3 2 59.44 2
-13 3 2 7.79 0.26
-9 3 2 102.9 2.76
-7 3 2 22.86 0.61
-5 3 2 34.43 1.04
-3 3 2 345.97 14.53
-1 3 2 331.07 14.57
1 3 2 40.81 1.67
3 3 2 582.56 22.92
5 3 2 624.9 24.01
7 3 2 151.46 5.29
9 3 2 135.99 4.8
11 3 2 31.65 1.05
13 3 2 139.05 5.05
15 3 2 192.3 6.86
17 3 2 18.73 0.67
19 3 2 0.24 0.12
21 3 2 0.39 0.64
23 3 2 0.01 0.86
25 3 2 2.09 0.17
27 3 2 2.42 0.18
29 3 2 0.34 0.16
31 3 2 0.31 0.17
33 3 2 0.21 0.16
35 3 2 0.04 0.23
-36 4 2 3.06 0.33
-34 4 2 0.13 0.15
-32 4 2 0.57 0.13
-30 4 2 1.02 0.14
-28 4 2 0.97 0.16
-26 4 2 39.25 1.12
-24 4 2 17.28 0.55
-22 4 2 0.78 0.12
-20 4 2 0.12 0.23
-18 4 2 123.59 4.07
-16 4 2 260.1 7.37
-14 4 2 2.59 0.12
-12 4 2 27.35 0.72
-10 4 2 110.21 3.01
-8 4 2 1.3 0.07
-6 4 2 142.19 4.12
-4 4 2 339.44 13.12
-2 4 2 731.59 33.23
0 4 2 2.3 0.14
2 4 2 27.32 1.21
4 4 2 0.1 0.06
6 4 2 32.94 1.36
8 4 2 70.03 2.59
10 4 2 517.7 19.66
12 4 2 48.48 1.97
14 4 2 5.56 0.24
16 4 2 61.23 2.37
18 4 2 32.6 1.1
20 4 2 10.95 0.45
22 4 2 0.2 0.2
24 4 2 18.68 0.73
26 4 2 0.64 0.15
28 4 2 0.19 0.38
30 4 2 0.15 0.67
32 4 2 0.9 0.18
-35 5 2 1.14 0.17
-33 5 2 0.63 0.16
-31 5 2 0.08 0.26
-29 5 2 0.19 0.13
-27 5 2 0.23 0.18
-25 5 2 8.26 0.3
-23 5 2 19.05 0.59
-21 5 2 4.61 0.21
-19 5 2 11.3 0.37
-17 5 2 79.02 2.71
-15 5 2 39.94 1.07
-13 5 2 3.8 0.15
-11 5 2 0.16 0.1
-9 5 2 66.05 1.93
-7 5 2 19.05 0.52
-5 5 2 11.26 0.41
-3 5 2 126.9 5.16
-1 5 2 125.51 6.52
1 5 2 10.69 0.43
3 5 2 243.32 10.09
5 5 2 231.84 8.79
7 5 2 71.23 2.75
9 5 2 103.39 3.76
11 5 2 28.06 0.94
13 5 2 86.26 3.33
15 5 2 131.26 4.88
17 5 2 16.13 0.59
19 5 2 0.35 0.18
21 5 2 0.06 0.14
23 5 2 0.24 0.57
25 5 2 1.77 0.16
27 5 2 1.47 0.18
29 5 2 0.32 0.15
31 5 2 0.1 0.16
33 5 2 0.11 0.17
35 5 2 0.12 0.21
-34 6 2 0.11 0.18
-32 6 2 0.48 0.12
-30 6 2 0.54 0.13
-28 6 2 0.59 0.12
-26 6 2 26.11 0.82
-24 6 2 13.33 0.46
-22 6 2 0.94 0.12
-20 6 2 0.23 0.24
-18 6 2 81.41 2.78
-16 6 2 166.39 5.04
-14 6 2 0.13 0.09
-12 6 2 8.26 0.26
-10 6 2 81.33 2.33
-8 6 2 1.07 0.07
-6 6 2 80.53 2.53
-4 6 2 75.76 3.24
-2 6 2 246.58 12.54
0 6 2 0.58 0.1
2 6 2 4.35 0.18
4 6 2 1.98 0.11
6 6 2 6.19 0.25
8 6 2 62.68 2.4
10 6 2 315.54 11.68
12 6 2 31.21 1.01
14 6 2 3.41 0.18
16 6 2 39.06 1.3
18 6 2 21.63 0.77
20 6 2 6.44 0.3
22 6 2 0.04 0.16
24 6 2 12.77 0.51
26 6 2 0.69 0.16
28 6 2 0.08 0.29
30 6 2 0.14 0.58
32 6 2 0.52 0.19
34 6 2 0.26 0.85
-35 7 2 0.66 0.32
-33 7 2 0.37 0.15
-29 7 2 0.18 0.14
-27 7 2 0.1 0.13
-25 7 2 6.27 0.26
-23 7 2 12.72 0.42
-21 7 2 3.11 0.17
-19 7 2 8 0.3
-17 7 2 50.22 1.39
-15 7 2 22.99 0.65
-13 7 2 1.33 0.09
-11 7 2 0.52 0.08
-9 7 2 36.44 1.14
-7 7 2 14.09 0.41
-5 7 2 2.31 0.15
-3 7 2 45.68 2.59
-1 7 2 66.12 3.49
1 7 2 2.1 0.14
3 7 2 135.29 6.15
5 7 2 81.58 3.04
7 7 2 28.46 0.97
9 7 2 76.8 2.91
11 7 2 21.19 0.72
13 7 2 46.95 1.64
15 7 2 79.5 3.23
17 7 2 11.79 0.47
19 7 2 0.53 0.15
21 7 2 0.07 0.14
23 7 2 0.04 0.15
25 7 2 1.36 0.16
27 7 2 0.77 0.15
29 7 2 0.29 0.17
31 7 2 0.06 0.16
33 7 2 0.13 0.19
-34 8 2 0.03 1.1
-32 8 2 0.14 0.14
-30 8 2 0.39 0.14
-28 8 2 0.44 0.15
-26 8 2 14.77 0.52
-24 8 2 9.13 0.33
-22 8 2 0.96 0.11
-20 8 2 0.03 1
-18 8 2 47.11 1.33
-16 8 2 94.54 3.13
-14 8 2 0.3 0.08
-12 8 2 1.4 0.1
-10 8 2 51.01 1.76
-8 8 2 2.49 0.11
-6 8 2 39.93 1.53
-4 8 2 17.84 0.71
-2 8 2 88.84 4.59
2 8 2 0.83 0.1
4 8 2 2.81 0.14
6 8 2 0.25 0.07
8 8 2 45.95 1.93
10 8 2 177.53 6.4
12 8 2 18.8 0.67
14 8 2 1.49 0.13
16 8 2 21.12 0.75
18 8 2 12.44 0.49
20 8 2 2.73 0.19
22 8 2 0.16 0.21
24 8 2 7.31 0.35
26 8 2 0.57 0.14
28 8 2 0.2 0.37
30 8 2 0.07 0.23
32 8 2 0.23 0.15
-33 9 2 0.28 0.21
-31 9 2 0.02 1
-29 9 2 0.01 0.83
-27 9 2 0.11 0.18
-25 9 2 4.32 0.21
-23 9 2 7.58 0.28
-21 9 2 1.69 0.13
-19 9 2 5.03 0.22
-17 9 2 28.11 0.81
-15 9 2 11.86 0.37
-13 9 2 0.46 0.1
-11 9 2 0.51 0.11
-9 9 2 19.81 0.56
-7 9 2 9.26 0.4
-5 9 2 0.32 0.11
-3 9 2 20.33 0.95
-1 9 2 30.87 1.85
1 9 2 1.18 0.11
3 9 2 60.98 2.36
5 9 2 34.54 1.33
7 9 2 15.35 0.5
9 9 2 45.71 1.74
11 9 2 13.38 0.53
13 9 2 22.87 0.79
15 9 2 42.1 1.46
17 9 2 7.86 0.35
19 9 2 0.64 0.16
21 9 2 0.13 0.14
23 9 2 0.12 0.24
25 9 2 1 0.16
27 9 2 0.38 0.13
29 9 2 0.2 0.13
31 9 2 0.1 0.19
-32 10 2 0.29 0.32
-30 10 2 0.25 0.2
-28 10 2 0.18 0.16
-26 10 2 7.05 0.3
-24 10 2 5.37 0.24
-22 10 2 0.81 0.12
-20 10 2 0.23 0.48
-18 10 2 23.86 0.71
-16 10 2 46.86 1.4
-14 10 2 0.6 0.09
-12 10 2 0.28 0.35
-10 10 2 28.94 0.95
-8 10 2 1.89 0.13
-6 10 2 18.72 0.75
-4 10 2 4.22 0.22
-2 10 2 32.09 1.68
0 10 2 0.04 0.17
2 10 2 0.23 0.09
4 10 2 2.16 0.11
6 10 2 0.3 0.07
8 10 2 29.1 0.89
10 10 2 89.38 3.1
12 10 2 10.77 0.38
14 10 2 0.44 0.1
16 10 2 10.02 0.38
18 10 2 6.14 0.26
20 10 2 0.8 0.14
22 10 2 0.12 0.18
24 10 2 3.65 0.2
26 10 2 0.39 0.15
28 10 2 0.16 0.24
30 10 2 0.07 0.18
-29 11 2 0.01 0.85
-27 11 2 0.06 0.11
-25 11 2 2.38 0.15
-23 11 2 3.91 0.18
-21 11 2 0.78 0.12
-19 11 2 2.7 0.14
-17 11 2 13.3 0.46
-15 11 2 5.32 0.23
-13 11 2 0.14 0.08
-11 11 2 0.44 0.08
-9 11 2 9.32 0.42
-7 11 2 5.23 0.28
-5 11 2 0.17 0.41
-3 11 2 9.13 0.41
-1 11 2 13.62 0.68
1 11 2 0.77 0.12
3 11 2 25.96 0.98
5 11 2 13.93 0.47
7 11 2 8.25 0.3
9 11 2 24.22 0.76
11 11 2 7.01 0.27
13 11 2 9.87 0.35
15 11 2 19.72 0.65
17 11 2 4.65 0.22
19 11 2 0.63 0.12
21 11 2 0.1 0.14
23 11 2 0.14 0.17
25 11 2 0.49 0.13
27 11 2 0.14 0.21
29 11 2 0.09 0.15
-28 12 2 0.17 0.16
-26 12 2 2.76 0.16
-24 12 2 2.72 0.16
-22 12 2 0.44 0.11
-20 12 2 0.11 0.13
-18 12 2 10.12 0.39
-16 12 2 19.77 0.68
-14 12 2 0.77 0.08
-12 12 2 0.31 0.33
-10 12 2 12.88 0.55
-8 12 2 1.24 0.16
-6 12 2 6.79 0.33
-4 12 2 0.8 0.1
-2 12 2 10.93 0.47
0 12 2 0.07 1.49
2 12 2 0.47 0.39
4 12 2 0.99 0.11
6 12 2 0.73 0.09
8 12 2 16.87 0.56
10 12 2 40.75 1.31
12 12 2 5.67 0.24
14 12 2 0.17 0.11
16 12 2 4.1 0.2
18 12 2 2.65 0.16
20 12 2 0.35 0.16
22 12 2 0.03 0.15
24 12 2 1.57 0.15
26 12 2 0.37 0.22
28 12 2 0.01 0.85
-27 13 2 0.03 0.12
-25 13 2 1.14 0.12
-23 13 2 1.75 0.13
-21 13 2 0.36 0.09
-19 13 2 1.21 0.11
-17 13 2 5.46 0.25
-15 13 2 2.09 0.12
-13 13 2 0.01 0.78
-11 13 2 0.34 0.13
-9 13 2 3.65 0.27
-7 13 2 2.62 0.22
-5 13 2 0.17 0.4
-3 13 2 3.55 0.2
-1 13 2 5.66 0.28
1 13 2 0.26 0.1
3 13 2 10.12 0.47
5 13 2 4.85 0.23
7 13 2 3.88 0.19
9 13 2 11.12 0.4
11 13 2 3.12 0.16
13 13 2 3.53 0.17
15 13 2 7.9 0.31
17 13 2 2.47 0.15
19 13 2 0.44 0.11
21 13 2 0.17 0.15
23 13 2 0.11 0.13
25 13 2 0.21 0.12
27 13 2 0.05 0.15
-26 14 2 0.92 0.18
-24 14 2 1.1 0.12
-22 14 2 0.28 0.09
-20 14 2 0.07 0.11
-18 14 2 3.43 0.17
-16 14 2 7 0.32
-14 14 2 0.62 0.17
-12 14 2 0.37 0.16
-10 14 2 5 0.34
-8 14 2 0.67 0.15
-6 14 2 1.94 0.18
-4 14 2 0.17 0.11
-2 14 2 3.21 0.2
0 14 2 0.27 0.43
2 14 2 0.08 0.17
4 14 2 0.44 0.1
6 14 2 0.77 0.09
8 14 2 7.86 0.35
10 14 2 15.72 0.59
12 14 2 2.38 0.14
14 14 2 0.11 0.12
16 14 2 1.36 0.11
18 14 2 0.96 0.11
20 14 2 0.2 0.24
22 14 2 0.16 0.15
24 14 2 0.6 0.13
-23 15 2 0.63 0.1
-21 15 2 0.18 0.08
-19 15 2 0.47 0.08
-17 15 2 1.93 0.14
-15 15 2 0.8 0.16
-13 15 2 0.09 0.21
-11 15 2 0.21 0.14
-9 15 2 1.25 0.16
-7 15 2 1.07 0.15
-5 15 2 0.61 0.89
-3 15 2 1.09 0.1
-1 15 2 1.78 0.13
1 15 2 0.15 0.08
3 15 2 3.38 0.28
5 15 2 1.55 0.15
7 15 2 1.5 0.11
9 15 2 4.32 0.25
11 15 2 1.12 0.11
13 15 2 1.11 0.11
15 15 2 2.5 0.15
17 15 2 0.89 0.1
19 15 2 0.26 0.13
21 15 2 0.11 0.13
23 15 2 0.07 0.14
-20 16 2 0.03 0.09
-18 16 2 0.92 0.08
-16 16 2 2.13 0.18
-14 16 2 0.86 0.64
-12 16 2 0.18 0.13
-10 16 2 1.71 0.19
-8 16 2 0.29 0.13
-6 16 2 0.46 0.13
-4 16 2 0.11 0.57
-2 16 2 0.68 0.12
0 16 2 0.26 0.39
2 16 2 0.19 0.53
4 16 2 0.19 0.3
6 16 2 0.73 0.26
8 16 2 3.11 0.23
10 16 2 4.94 0.26
12 16 2 0.85 0.1
14 16 2 0.13 0.11
16 16 2 0.38 0.09
18 16 2 0.26 0.1
20 16 2 0.05 0.11
-17 17 2 0.63 0.16
-15 17 2 0.26 0.16
-13 17 2 0.07 0.14
-11 17 2 0.06 0.12
-9 17 2 0.33 0.13
-7 17 2 0.65 0.5
-5 17 2 0.82 0.74
-3 17 2 0.22 0.09
-1 17 2 0.57 0.39
1 17 2 0.43 1.08
3 17 2 1.16 0.3
5 17 2 0.59 0.27
7 17 2 0.57 0.23
9 17 2 1.18 0.13
11 17 2 0.37 0.11
13 17 2 0.28 0.08
15 17 2 0.65 0.09
17 17 2 0.31 0.09
-14 18 2 0.15 0.27
-12 18 2 0.15 0.15
-10 18 2 0.46 0.11
-8 18 2 0.17 0.1
-6 18 2 0.14 0.1
-4 18 2 0.43 0.45
-2 18 2 0.51 0.54
0 18 2 0.17 0.3
4 18 2 0.3 0.43
6 18 2 0.56 0.31
8 18 2 1.2 0.31
10 18 2 1.15 0.13
12 18 2 0.37 0.1
-7 19 2 0.04 0.11
-5 19 2 0.01 0.7
-36 0 3 0.19 0.25
-34 0 3 0.67 0.19
-32 0 3 0.42 0.17
-30 0 3 0.51 0.18
-28 0 3 0.06 0.3
-26 0 3 0.08 2.23
-24 0 3 25.34 1.06
-22 0 3 20.66 0.87
-20 0 3 23.07 0.93
-18 0 3 18.62 0.75
-16 0 3 36.22 1.4
-14 0 3 27.34 1.04
-12 0 3 5.7 0.23
-10 0 3 21.74 0.72
-8 0 3 169.95 6.62
-6 0 3 600.54 31
-4 0 3 54.33 2.89
-2 0 3 11.65 0.67
0 0 3 418.64 23.34
2 0 3 44.15 2.39
4 0 3 592.37 32.23
6 0 3 246.11 12.54
8 0 3 529.49 55.78
10 0 3 8.82 0.49
12 0 3 7.33 0.42
14 0 3 11.19 0.64
16 0 3 14.97 0.77
18 0 3 42.35 1.94
20 0 3 98.51 5.85
22 0 3 28.66 1.41
24 0 3 2.76 0.28
26 0 3 6.23 0.42
28 0 3 0.19 0.22
30 0 3 14.54 1.1
32 0 3 1.75 0.26
34 0 3 2.05 0.65
-35 1 3 6.58 0.36
-31 1 3 1.06 0.15
-29 1 3 0.1 0.39
-27 1 3 2.55 0.16
-25 1 3 0.89 0.14
-23 1 3 44.73 1.25
-21 1 3 0.09 1.74
-19 1 3 8.03 0.28
-17 1 3 120.91 3.75
-15 1 3 113.96 3.53
-13 1 3 5.86 0.19
-11 1 3 143.44 3.56
-9 1 3 1214.07 33.22
-7 1 3 206.91 6.89
-5 1 3 127.96 4.52
-3 1 3 226.86 9.37
-1 1 3 1824.95 81.56
1 1 3 295.37 11.98
3 1 3 826.8 31.45
5 1 3 442.27 17.35
7 1 3 10.19 0.36
9 1 3 173.61 5.77
11 1 3 166.98 5.86
13 1 3 70.56 2.78
15 1 3 47.28 1.69
17 1 3 35.93 1.22
19 1 3 7.87 0.35
21 1 3 3.1 0.19
23 1 3 0.63 0.13
25 1 3 10.75 0.46
27 1 3 13.97 0.59
29 1 3 0.15 0.17
31 1 3 0.52 0.16
33 1 3 1.15 0.21
35 1 3 0.25 0.38
-36 2 3 0.54 0.28
-34 2 3 0.77 0.14
-32 2 3 0.36 0.12
-30 2 3 0.49 0.12
-26 2 3 0.05 1.91
-24 2 3 23.43 0.73
-22 2 3 18.86 0.58
-20 2 3 21.08 0.63
-18 2 3 16.36 0.58
-16 2 3 32.99 0.89
-14 2 3 26.11 0.71
-12 2 3 4.45 0.15
-10 2 3 19.02 0.44
-8 2 3 181.31 4.64
-6 2 3 364.79 12.44
-4 2 3 35.64 1.42
-2 2 3 36.75 1.47
0 2 3 139.59 5.59
2 2 3 66.33 2.44
4 2 3 261.5 10.14
6 2 3 148.12 5.36
8 2 3 469.76 17.71
10 2 3 7.39 0.3
12 2 3 5.49 0.23
14 2 3 11.99 0.45
16 2 3 14.19 0.54
18 2 3 41.76 1.41
20 2 3 90.98 3.68
22 2 3 26.5 0.93
24 2 3 2.54 0.18
26 2 3 5.84 0.29
28 2 3 0.27 0.16
30 2 3 13.14 0.69
32 2 3 1.27 0.18
34 2 3 1.98 0.27
-37 3 3 3.03 0.47
-35 3 3 5.77 0.34
-31 3 3 0.85 0.14
-29 3 3 0.04 0.22
-27 3 3 2.04 0.15
-25 3 3 0.63 0.12
-23 3 3 37.61 1.08
-21 3 3 0.05 0.13
-19 3 3 6.5 0.25
-17 3 3 111.31 3.56
-15 3 3 109.2 3.4
-13 3 3 6.85 0.22
-11 3 3 128.46 3.43
-9 3 3 909.56 26.22
-7 3 3 111.2 3.15
-5 3 3 88.84 3.02
-3 3 3 149.5 5.81
-1 3 3 669.45 27.91
1 3 3 166.19 6.79
3 3 3 412.87 16.73
5 3 3 280.09 10.42
7 3 3 3.69 0.17
9 3 3 144.98 4.89
11 3 3 119.97 4.27
13 3 3 56.41 2.37
15 3 3 35.82 1.18
17 3 3 27.59 0.93
19 3 3 7.08 0.32
21 3 3 2.23 0.17
23 3 3 0.64 0.15
25 3 3 9.74 0.45
27 3 3 12.12 0.53
29 3 3 0.64 0.63
31 3 3 0.42 0.15
33 3 3 1.03 0.19
35 3 3 0.63 1.11
-36 4 3 0.51 0.24
-34 4 3 0.58 0.15
-32 4 3 0.21 0.14
-30 4 3 0.49 0.13
-24 4 3 18.86 0.6
-22 4 3 14.05 0.45
-20 4 3 16.94 0.51
-18 4 3 12.49 0.39
-16 4 3 25.57 0.71
-14 4 3 20.75 0.55
-12 4 3 2.22 0.1
-10 4 3 14.49 0.41
-8 4 3 137.41 3.73
-6 4 3 179.85 5.93
-4 4 3 25.3 1.09
-2 4 3 91.66 3.54
0 4 3 50.45 2.18
2 4 3 46.65 1.97
4 4 3 101.09 3.63
6 4 3 61.25 2.34
8 4 3 245.03 9.1
10 4 3 3.99 0.19
12 4 3 2.24 0.14
14 4 3 11.31 0.42
16 4 3 13.32 0.51
18 4 3 36.77 1.21
20 4 3 71.53 2.62
22 4 3 20.39 0.79
24 4 3 2.12 0.17
26 4 3 4.52 0.26
28 4 3 0.13 0.14
30 4 3 10.29 0.63
32 4 3 0.97 0.19
34 4 3 1.53 0.24
-35 5 3 4.48 0.37
-33 5 3 0.14 0.25
-31 5 3 0.66 0.13
-29 5 3 0.18 0.18
-27 5 3 1.33 0.13
-25 5 3 0.54 0.12
-23 5 3 25.72 0.77
-21 5 3 0.18 0.15
-19 5 3 2.93 0.14
-17 5 3 84.05 2.81
-15 5 3 87.1 2.81
-13 5 3 1.97 0.1
-11 5 3 85.86 2.69
-9 5 3 522.45 16.25
-7 5 3 48.92 1.59
-5 5 3 48.76 1.73
-3 5 3 57.13 2.27
-1 5 3 224.23 9.6
1 5 3 51.92 2.26
3 5 3 213.89 8.75
5 5 3 129.26 4.5
7 5 3 0.34 0.08
9 5 3 89.02 3.5
11 5 3 79.2 3.07
13 5 3 36.04 1.16
15 5 3 25.81 0.88
17 5 3 19.24 0.68
19 5 3 5.96 0.28
21 5 3 1.41 0.17
23 5 3 0.63 0.14
25 5 3 7.4 0.36
27 5 3 8.71 0.39
29 5 3 0.28 0.29
31 5 3 0.17 0.16
33 5 3 0.63 0.19
35 5 3 0.11 0.3
-34 6 3 0.43 0.16
-32 6 3 0.04 0.14
-30 6 3 0.25 0.14
-28 6 3 0.01 0.91
-26 6 3 0.23 0.67
-24 6 3 12.77 0.44
-22 6 3 8.51 0.31
-20 6 3 11.43 0.38
-18 6 3 7.16 0.26
-16 6 3 16.92 0.5
-14 6 3 14.01 0.39
-12 6 3 0.69 0.08
-10 6 3 9.83 0.29
-8 6 3 78.76 2.65
-6 6 3 117.1 4.11
-4 6 3 21.95 0.84
-2 6 3 38.67 1.73
0 6 3 63.62 2.72
2 6 3 16.3 0.58
4 6 3 82.82 3.08
6 6 3 24.36 0.9
8 6 3 115.05 4.08
10 6 3 1.83 0.12
12 6 3 0.73 0.1
14 6 3 9.5 0.37
16 6 3 12.48 0.47
18 6 3 29.22 1.01
20 6 3 49.96 1.66
22 6 3 13.24 0.54
24 6 3 1.58 0.16
26 6 3 2.93 0.2
28 6 3 0.16 0.15
30 6 3 6.76 0.4
32 6 3 0.64 0.18
34 6 3 1.1 0.22
-33 7 3 0.08 0.32
-31 7 3 0.35 0.14
-29 7 3 0.06 0.16
-27 7 3 0.79 0.13
-25 7 3 0.47 0.12
-23 7 3 14.79 0.48
-21 7 3 0.2 0.11
-19 7 3 0.53 0.1
-17 7 3 56.6 1.68
-15 7 3 59.1 1.84
-13 7 3 0.06 0.08
-11 7 3 48.86 1.59
-9 7 3 254.87 8.05
-7 7 3 23.12 0.71
-5 7 3 25.9 1.09
-3 7 3 23.81 1.06
-1 7 3 78.52 3.75
1 7 3 12.63 0.49
3 7 3 113.77 4.3
5 7 3 60.41 2.36
9 7 3 46.33 1.9
11 7 3 48.9 1.86
13 7 3 20.07 0.7
15 7 3 16.48 0.61
17 7 3 11.68 0.46
19 7 3 4.58 0.24
21 7 3 0.65 0.14
23 7 3 0.59 0.14
25 7 3 4.96 0.26
27 7 3 5.5 0.29
29 7 3 0.35 0.39
31 7 3 0.18 0.16
33 7 3 0.49 0.21
-34 8 3 0.38 0.3
-32 8 3 0.06 0.13
-30 8 3 0.19 0.13
-28 8 3 0.06 0.15
-24 8 3 7.35 0.29
-22 8 3 4.35 0.19
-20 8 3 6.75 0.26
-18 8 3 3.44 0.16
-16 8 3 9.62 0.34
-14 8 3 8.87 0.32
-12 8 3 0.14 0.11
-10 8 3 6.14 0.21
-8 8 3 47.19 1.76
-6 8 3 67.07 2.43
-4 8 3 16.53 0.82
-2 8 3 27.09 1.43
0 8 3 44.65 2.1
2 8 3 7.16 0.27
4 8 3 51.82 2.05
6 8 3 8.24 0.3
8 8 3 53.1 2.17
10 8 3 1.19 0.12
12 8 3 0.27 0.18
14 8 3 6.94 0.3
16 8 3 9.95 0.41
18 8 3 21.13 0.77
20 8 3 29.91 1.06
22 8 3 7.49 0.34
24 8 3 1.04 0.16
26 8 3 1.64 0.18
28 8 3 0.1 0.16
30 8 3 3.68 0.31
32 8 3 0.31 0.19
-33 9 3 0.05 0.22
-31 9 3 0.2 0.13
-29 9 3 0.08 0.16
-27 9 3 0.45 0.12
-25 9 3 0.3 0.12
-23 9 3 7.28 0.28
-21 9 3 0.23 0.1
-19 9 3 0.43 0.7
-17 9 3 33.16 0.98
-15 9 3 36.63 1.09
-13 9 3 0.22 0.08
-11 9 3 25.01 0.69
-9 9 3 118.32 3.91
-7 9 3 11.14 0.45
-5 9 3 13.09 0.57
-3 9 3 11.87 0.61
-1 9 3 29.28 1.59
1 9 3 2.4 0.17
3 9 3 55.5 2.33
5 9 3 28.71 1.01
7 9 3 0.12 0.15
9 9 3 22.16 0.75
11 9 3 24.28 0.83
13 9 3 9.3 0.38
15 9 3 8.36 0.35
17 9 3 5.79 0.27
19 9 3 3.08 0.19
21 9 3 0.48 0.3
23 9 3 0.46 0.16
25 9 3 3.01 0.2
27 9 3 2.95 0.21
29 9 3 0.09 0.2
31 9 3 0.07 0.16
-30 10 3 0.14 0.13
-26 10 3 0.24 0.34
-24 10 3 3.71 0.19
-22 10 3 1.92 0.13
-20 10 3 3.24 0.16
-18 10 3 1.32 0.14
-16 10 3 4.53 0.2
-14 10 3 5.16 0.23
-12 10 3 0.02 0.08
-10 10 3 3.64 0.17
-8 10 3 26.54 0.89
-6 10 3 32.91 1.48
-4 10 3 9.92 0.52
-2 10 3 19.8 0.96
0 10 3 24.27 1.23
2 10 3 4.07 0.23
4 10 3 25.33 0.89
6 10 3 2.59 0.14
8 10 3 22.04 0.75
10 10 3 0.69 0.13
12 10 3 0.03 0.1
14 10 3 4.29 0.22
16 10 3 6.58 0.3
18 10 3 13.6 0.54
20 10 3 16.01 0.63
22 10 3 3.61 0.22
24 10 3 0.61 0.15
26 10 3 0.81 0.16
28 10 3 0.03 0.15
30 10 3 1.74 0.29
-29 11 3 0.12 0.15
-27 11 3 0.2 0.2
-25 11 3 0.13 0.13
-23 11 3 2.91 0.17
-21 11 3 0.25 0.11
-19 11 3 0.06 0.16
-17 11 3 16.67 0.59
-15 11 3 19.46 0.64
-13 11 3 0.48 0.08
-11 11 3 10.74 0.4
-9 11 3 49.7 1.84
-7 11 3 5.61 0.29
-5 11 3 5.89 0.29
-3 11 3 6.01 0.36
-1 11 3 9.43 0.5
1 11 3 0.28 0.12
3 11 3 25.63 0.99
5 11 3 13.07 0.43
7 11 3 0.42 0.39
9 11 3 9.61 0.37
11 11 3 10.36 0.4
13 11 3 3.56 0.19
15 11 3 3.68 0.21
17 11 3 2.53 0.17
19 11 3 1.78 0.16
21 11 3 0.1 0.2
23 11 3 0.44 0.14
25 11 3 1.62 0.16
27 11 3 1.33 0.16
29 11 3 0.22 0.18
-28 12 3 0.12 0.16
-26 12 3 0.03 0.14
-24 12 3 1.59 0.13
-22 12 3 0.69 0.11
-20 12 3 1.26 0.11
-18 12 3 0.46 0.1
-16 12 3 1.71 0.13
-14 12 3 2.52 0.15
-12 12 3 0.13 0.17
-10 12 3 1.78 0.16
-8 12 3 13.25 0.59
-6 12 3 14.82 0.62
-4 12 3 5.52 0.28
-2 12 3 11.25 0.6
0 12 3 11.32 0.59
2 12 3 1.92 0.16
4 12 3 11.13 0.51
6 12 3 0.67 0.09
8 12 3 8.27 0.3
10 12 3 0.62 0.13
12 12 3 0.18 0.09
14 12 3 2.28 0.14
16 12 3 3.93 0.2
18 12 3 7.64 0.31
20 12 3 7.34 0.32
22 12 3 1.49 0.14
24 12 3 0.26 0.15
26 12 3 0.26 0.13
28 12 3 0.03 0.13
-27 13 3 0.15 0.13
-25 13 3 0.01 0.69
-23 13 3 0.9 0.11
-21 13 3 0.42 0.33
-19 13 3 0.14 0.13
-17 13 3 7.22 0.3
-15 13 3 8.73 0.35
-13 13 3 0.52 0.14
-11 13 3 4.44 0.35
-9 13 3 18.35 0.83
-7 13 3 2.57 0.18
-5 13 3 2.18 0.16
-3 13 3 2.83 0.18
-1 13 3 2.98 0.22
1 13 3 0.54 0.7
3 13 3 10.03 0.49
5 13 3 5.1 0.27
7 13 3 0.03 0.08
9 13 3 3.63 0.17
11 13 3 3.89 0.18
13 13 3 1.13 0.11
15 13 3 1.36 0.12
17 13 3 0.9 0.12
19 13 3 0.9 0.13
21 13 3 0.49 0.56
23 13 3 0.16 0.12
25 13 3 0.58 0.13
27 13 3 0.56 0.29
-24 14 3 0.54 0.11
-22 14 3 0.21 0.09
-20 14 3 0.35 0.09
-18 14 3 0.1 0.09
-16 14 3 0.56 0.09
-14 14 3 0.95 0.16
-12 14 3 0.06 0.16
-10 14 3 1.05 0.16
-8 14 3 5.54 0.33
-6 14 3 5.9 0.31
-4 14 3 2.62 0.17
-2 14 3 5.37 0.29
0 14 3 4.31 0.29
2 14 3 0.76 0.12
4 14 3 4.02 0.24
6 14 3 0.25 0.13
8 14 3 2.57 0.14
10 14 3 0.37 0.08
12 14 3 0.21 0.09
14 14 3 1.07 0.11
16 14 3 1.95 0.15
18 14 3 3.49 0.22
20 14 3 2.76 0.18
22 14 3 0.6 0.13
24 14 3 0.37 0.25
-23 15 3 0.22 0.09
-21 15 3 0.09 0.1
-19 15 3 0.13 0.12
-17 15 3 2.56 0.17
-15 15 3 3.32 0.22
-13 15 3 0.41 0.15
-11 15 3 1.54 0.18
-9 15 3 5.98 0.4
-7 15 3 0.91 0.12
-5 15 3 0.7 0.12
-3 15 3 1.03 0.11
-1 15 3 0.76 0.11
1 15 3 0.07 0.1
3 15 3 3.43 0.26
5 15 3 1.69 0.14
7 15 3 0.31 0.38
9 15 3 1.14 0.1
11 15 3 1.23 0.09
13 15 3 0.3 0.08
15 15 3 0.39 0.1
17 15 3 0.37 0.12
19 15 3 0.4 0.12
21 15 3 0.2 0.2
-20 16 3 0.12 0.18
-18 16 3 0.04 0.15
-16 16 3 0.36 0.16
-14 16 3 0.32 0.16
-10 16 3 0.43 0.17
-8 16 3 1.92 0.19
-6 16 3 1.9 0.17
-4 16 3 0.94 0.1
-2 16 3 2.06 0.14
0 16 3 1.39 0.12
2 16 3 0.3 0.1
4 16 3 1.17 0.13
6 16 3 0.5 0.32
8 16 3 0.55 0.1
10 16 3 0.2 0.08
12 16 3 0.17 0.09
14 16 3 0.41 0.1
16 16 3 0.73 0.09
18 16 3 1.2 0.11
20 16 3 0.83 0.23
-17 17 3 0.87 0.21
-15 17 3 1.01 0.18
-13 17 3 0.14 0.13
-11 17 3 0.55 0.14
-9 17 3 1.57 0.18
-7 17 3 0.36 0.12
-5 17 3 0.16 0.12
-3 17 3 0.22 0.08
-1 17 3 0.2 0.08
1 17 3 0.18 0.12
3 17 3 0.96 0.11
5 17 3 0.45 0.1
7 17 3 0.05 0.09
9 17 3 0.4 0.11
11 17 3 0.34 0.08
13 17 3 0.04 0.08
15 17 3 0.06 0.09
17 17 3 0.65 0.98
-12 18 3 0.05 0.12
-10 18 3 0.21 0.16
-8 18 3 0.59 0.15
-6 18 3 0.45 0.11
-4 18 3 0.36 0.13
-2 18 3 0.54 0.11
0 18 3 0.32 0.08
2 18 3 0.28 0.26
4 18 3 0.29 0.11
6 18 3 0.27 0.69
8 18 3 0.21 0.12
10 18 3 0.11 0.08
12 18 3 0.04 0.1
-7 19 3 0.18 0.19
-5 19 3 0.05 0.13
-36 0 4 0.96 0.26
-34 0 4 0.45 0.22
-30 0 4 2.91 0.25
-28 0 4 1.13 0.21
-26 0 4 28.88 1.28
-24 0 4 0.45 0.17
-22 0 4 2.23 0.19
-20 0 4 35.47 1.43
-18 0 4 2.61 0.22
-16 0 4 418.85 17.46
-14 0 4 268.51 8.93
-12 0 4 0.29 0.09
-10 0 4 16.47 0.66
-8 0 4 337.67 14.3
-6 0 4 1313.71 69.41
-4 0 4 146.14 7.57
-2 0 4 2.59 0.18
0 0 4 40.69 2.24
2 0 4 227.41 11.5
4 0 4 324.23 17.18
6 0 4 89.11 4.45
8 0 4 501.47 27.07
10 0 4 6.1 0.37
12 0 4 8.74 0.64
14 0 4 12.59 0.64
16 0 4 0.84 0.15
18 0 4 2.31 0.21
20 0 4 23.69 1.22
22 0 4 2.94 0.26
24 0 4 1.85 0.23
26 0 4 19.74 1.06
28 0 4 6.27 0.44
30 0 4 0.12 0.22
32 0 4 1.07 0.22
34 0 4 2.92 0.45
-35 1 4 0.56 0.14
-33 1 4 1.61 0.14
-31 1 4 0.66 0.13
-29 1 4 2.69 0.17
-27 1 4 17.75 0.59
-25 1 4 44.53 1.3
-23 1 4 0.08 0.14
-21 1 4 0.39 0.11
-19 1 4 11.23 0.36
-17 1 4 0.63 0.1
-15 1 4 4.67 0.16
-13 1 4 25.73 0.6
-11 1 4 29.99 0.76
-9 1 4 51.05 1.68
-7 1 4 400.52 14.31
-5 1 4 220.4 8.05
-3 1 4 19.01 0.79
-1 1 4 348.17 14.07
1 1 4 1748.28 82.35
3 1 4 52.38 2.06
5 1 4 271.6 9.87
7 1 4 101.52 3.6
9 1 4 105.69 3.79
11 1 4 48.8 1.99
13 1 4 55.8 2.3
15 1 4 132.19 4.88
17 1 4 71.43 2.91
19 1 4 101.95 4.07
21 1 4 19.62 0.73
23 1 4 49.59 1.83
25 1 4 46.18 1.73
27 1 4 0.65 0.14
29 1 4 1.07 0.71
31 1 4 0.91 0.18
33 1 4 0.43 0.21
-36 2 4 1.11 0.22
-34 2 4 0.42 0.15
-30 2 4 2.58 0.17
-28 2 4 1.06 0.14
-26 2 4 26.41 0.83
-24 2 4 0.47 0.11
-22 2 4 2.15 0.14
-20 2 4 31.34 0.95
-18 2 4 2.02 0.12
-16 2 4 378.8 10.8
-14 2 4 242.08 6.18
-12 2 4 0.17 0.07
-10 2 4 17.36 0.48
-8 2 4 286.9 9.4
-6 2 4 944.97 35.89
-4 2 4 139.78 4.97
-2 2 4 2.98 0.14
0 2 4 33.38 1.37
2 2 4 167.34 6.33
4 2 4 286.39 10.48
6 2 4 114.85 3.99
8 2 4 420.13 15.46
10 2 4 2.87 0.15
12 2 4 5.97 0.25
14 2 4 11.26 0.43
16 2 4 0.72 0.12
18 2 4 2.17 0.15
20 2 4 21.6 0.78
22 2 4 2.93 0.19
24 2 4 1.97 0.17
26 2 4 18.57 0.73
28 2 4 5.69 0.31
30 2 4 0.15 0.2
32 2 4 0.87 0.17
34 2 4 2.62 0.3
-35 3 4 0.59 0.18
-33 3 4 1.37 0.16
-31 3 4 0.48 0.12
-29 3 4 2.08 0.16
-27 3 4 15.56 0.53
-25 3 4 38.69 1.13
-23 3 4 0.12 0.12
-21 3 4 0.26 0.11
-19 3 4 8.86 0.3
-17 3 4 0.5 0.09
-15 3 4 3.21 0.14
-13 3 4 23.34 0.57
-11 3 4 14.77 0.4
-9 3 4 54.08 1.75
-7 3 4 433.22 14.72
-5 3 4 90.22 3.24
-3 3 4 8.84 0.35
-1 3 4 343.35 14.12
1 3 4 910.35 34.8
3 3 4 16.57 0.56
5 3 4 205.58 7.59
7 3 4 66.82 2.54
9 3 4 75.33 2.85
11 3 4 36.77 1.37
13 3 4 50.46 1.98
15 3 4 108.82 4.2
17 3 4 60.08 2.23
19 3 4 88.05 3.78
21 3 4 15.89 0.62
23 3 4 42.35 1.53
25 3 4 39.16 1.45
27 3 4 0.62 0.15
29 3 4 0.36 0.4
31 3 4 0.61 0.16
33 3 4 0.38 0.21
35 3 4 0.02 1.24
-36 4 4 0.82 0.38
-34 4 4 0.4 0.15
-32 4 4 0.07 0.24
-30 4 4 1.8 0.14
-28 4 4 0.91 0.13
-26 4 4 20.28 0.65
-24 4 4 0.36 0.12
-22 4 4 1.68 0.12
-20 4 4 22.34 0.66
-18 4 4 1.43 0.11
-16 4 4 291.08 7.5
-14 4 4 183.9 5.24
-12 4 4 0.05 0.07
-10 4 4 15.49 0.43
-8 4 4 185.56 5.47
-6 4 4 493.28 18.86
-4 4 4 81.17 3.02
-2 4 4 2.18 0.11
0 4 4 28.07 1.22
2 4 4 69.43 2.56
4 4 4 167.91 6.39
6 4 4 106.18 3.73
8 4 4 291.77 10.85
10 4 4 1.61 0.12
12 4 4 3.37 0.17
14 4 4 8.14 0.32
16 4 4 0.67 0.15
18 4 4 1.86 0.15
20 4 4 17.46 0.67
22 4 4 2.78 0.2
24 4 4 1.82 0.22
26 4 4 14.98 0.62
28 4 4 4.74 0.27
30 4 4 0.01 1.02
32 4 4 0.76 0.17
34 4 4 1.96 0.27
-35 5 4 0.45 0.24
-33 5 4 1.11 0.15
-31 5 4 0.4 0.14
-29 5 4 1.36 0.13
-27 5 4 12.21 0.45
-25 5 4 28.4 0.87
-23 5 4 0.12 0.11
-21 5 4 0.14 0.1
-19 5 4 5.39 0.21
-17 5 4 0.44 0.09
-15 5 4 1.64 0.1
-13 5 4 15.49 0.45
-11 5 4 11.59 0.36
-9 5 4 47.03 1.58
-7 5 4 303.06 9.71
-5 5 4 79.46 2.92
-3 5 4 3.73 0.17
-1 5 4 156.35 6.55
1 5 4 425.78 17.73
3 5 4 1.55 0.11
5 5 4 130.1 4.79
7 5 4 40.85 1.71
9 5 4 41.48 1.69
11 5 4 18.09 0.62
13 5 4 36.4 1.18
15 5 4 74.06 3
17 5 4 44.29 1.46
19 5 4 63.46 2.12
21 5 4 10.76 0.45
23 5 4 30.65 1.13
25 5 4 28.54 1.11
27 5 4 0.45 0.15
29 5 4 0.2 0.22
31 5 4 0.48 0.15
33 5 4 0.24 0.21
-34 6 4 0.37 0.17
-30 6 4 1.06 0.14
-28 6 4 0.75 0.12
-26 6 4 13.32 0.46
-24 6 4 0.18 0.12
-22 6 4 1.17 0.12
-20 6 4 13.58 0.45
-18 6 4 1.2 0.11
-16 6 4 187.99 5.56
-14 6 4 115.56 3.59
-12 6 4 0.18 0.07
-10 6 4 11.72 0.39
-8 6 4 99.7 2.98
-6 6 4 242.81 8.03
-4 6 4 33.6 1.42
-2 6 4 1.15 0.09
0 6 4 23.06 1.03
2 6 4 20.98 0.84
4 6 4 76.25 2.91
6 6 4 59.68 2.36
8 6 4 185.34 6.47
10 6 4 2.41 0.15
12 6 4 3.2 0.17
14 6 4 4.36 0.22
16 6 4 0.77 0.15
18 6 4 1.44 0.14
20 6 4 11.98 0.49
22 6 4 2.43 0.17
24 6 4 1.83 0.19
26 6 4 10.68 0.47
28 6 4 3.38 0.24
30 6 4 0.23 0.35
32 6 4 0.51 0.16
34 6 4 1.38 0.55
-33 7 4 0.65 0.17
-31 7 4 0.38 0.21
-29 7 4 0.79 0.14
-27 7 4 8.36 0.34
-25 7 4 18.41 0.61
-23 7 4 0.43 0.23
-21 7 4 0.12 0.12
-19 7 4 2.63 0.14
-17 7 4 0.15 0.11
-15 7 4 0.58 0.09
-13 7 4 8.56 0.28
-11 7 4 9.54 0.34
-9 7 4 38.18 1.27
-7 7 4 179.81 5.85
-5 7 4 63.96 2.33
-3 7 4 0.96 0.08
-1 7 4 59.76 2.48
1 7 4 198.06 7.8
3 7 4 0.05 0.12
5 7 4 74.58 2.88
7 7 4 23.93 0.79
9 7 4 19.68 0.67
11 7 4 6.23 0.27
13 7 4 23.49 0.8
15 7 4 43.95 1.5
17 7 4 28.16 0.99
19 7 4 40.53 1.4
21 7 4 6.04 0.3
23 7 4 19.98 0.77
25 7 4 17.6 0.72
27 7 4 0.38 0.16
29 7 4 0.14 0.23
31 7 4 0.23 0.18
33 7 4 0.44 0.33
-32 8 4 0.12 0.18
-30 8 4 0.58 0.14
-28 8 4 0.53 0.13
-26 8 4 7.25 0.3
-24 8 4 0.17 0.11
-22 8 4 0.67 0.11
-20 8 4 6.76 0.26
-18 8 4 0.72 0.11
-16 8 4 103.54 3.46
-14 8 4 66.47 2.26
-12 8 4 0.23 0.09
-10 8 4 8.27 0.29
-8 8 4 49.45 1.82
-6 8 4 110.15 4.23
-4 8 4 15.3 0.58
-2 8 4 1.04 0.13
0 8 4 15.77 0.64
2 8 4 5.7 0.23
4 8 4 31.11 1.33
6 8 4 32.8 1.18
8 8 4 105.81 4.01
10 8 4 2.03 0.14
12 8 4 2.37 0.15
14 8 4 1.73 0.14
16 8 4 0.54 0.14
18 8 4 1.11 0.14
20 8 4 7 0.34
22 8 4 1.93 0.18
24 8 4 1.63 0.17
26 8 4 6.45 0.35
28 8 4 2.17 0.2
30 8 4 0.25 0.39
32 8 4 0.26 0.17
-31 9 4 0.19 0.15
-29 9 4 0.28 0.12
-27 9 4 5 0.24
-25 9 4 10.31 0.39
-23 9 4 0.22 0.12
-21 9 4 0.13 0.13
-19 9 4 0.96 0.12
-17 9 4 0.27 0.24
-15 9 4 0.22 0.11
-13 9 4 4.61 0.19
-11 9 4 5.77 0.23
-9 9 4 27.34 0.82
-7 9 4 107.68 3.78
-5 9 4 34.3 1.37
-3 9 4 0.28 0.13
-1 9 4 28.18 1.26
1 9 4 83.16 3.43
3 9 4 0.15 0.3
5 9 4 37.05 1.58
7 9 4 12.41 0.45
9 9 4 8.29 0.33
11 9 4 1.68 0.13
13 9 4 13.7 0.52
15 9 4 23.17 0.82
17 9 4 16.23 0.62
19 9 4 22.57 0.85
21 9 4 2.88 0.2
23 9 4 10.96 0.47
25 9 4 9.26 0.5
27 9 4 0.33 0.17
29 9 4 0.13 0.19
31 9 4 0.15 0.17
-30 10 4 0.33 0.16
-28 10 4 0.24 0.12
-26 10 4 3.32 0.18
-24 10 4 0.07 0.11
-22 10 4 0.44 0.11
-20 10 4 2.64 0.15
-18 10 4 0.4 0.12
-16 10 4 48.57 1.54
-14 10 4 33.11 1.05
-12 10 4 0.41 0.26
-10 10 4 5.2 0.21
-8 10 4 22.86 0.8
-6 10 4 45.14 2.32
-4 10 4 7.13 0.42
-2 10 4 0.96 0.13
0 10 4 8.56 0.45
2 10 4 1.39 0.14
4 10 4 11.29 0.45
6 10 4 17.81 0.62
8 10 4 53.72 2.23
10 10 4 1.37 0.12
12 10 4 1.38 0.13
14 10 4 0.48 0.13
16 10 4 0.47 0.12
18 10 4 0.81 0.15
20 10 4 3.58 0.22
22 10 4 1.48 0.15
24 10 4 1.14 0.16
26 10 4 3.49 0.23
28 10 4 1.12 0.19
30 10 4 0.09 0.16
-29 11 4 0.26 0.17
-27 11 4 2.48 0.18
-25 11 4 4.75 0.24
-23 11 4 0.19 0.12
-21 11 4 0.04 0.1
-19 11 4 0.31 0.1
-17 11 4 0.05 0.14
-15 11 4 0.02 0.83
-13 11 4 2.31 0.15
-11 11 4 3.33 0.17
-9 11 4 17.06 0.64
-7 11 4 53.75 2.61
-5 11 4 16.78 0.85
-1 11 4 12.69 0.67
1 11 4 33.51 1.57
3 11 4 0.09 0.16
5 11 4 16.03 0.58
7 11 4 5.68 0.25
9 11 4 3.22 0.17
11 11 4 0.31 0.11
13 11 4 6.76 0.3
15 11 4 10.48 0.44
17 11 4 8.35 0.36
19 11 4 11.23 0.48
21 11 4 1.17 0.16
23 11 4 5.24 0.3
25 11 4 3.99 0.3
27 11 4 0.2 0.2
29 11 4 0.19 0.34
-28 12 4 0.17 0.12
-26 12 4 1.27 0.13
-24 12 4 0.12 0.12
-22 12 4 0.29 0.12
-20 12 4 0.79 0.1
-18 12 4 0.2 0.1
-16 12 4 18.91 0.71
-14 12 4 14.65 0.53
-12 12 4 0.17 0.4
-10 12 4 2.87 0.17
-8 12 4 9.36 0.43
-6 12 4 16.2 0.71
-4 12 4 3.03 0.24
-2 12 4 0.71 0.14
0 12 4 3.84 0.26
2 12 4 0.35 0.12
4 12 4 3.21 0.21
6 12 4 8.28 0.34
8 12 4 23.73 0.83
10 12 4 0.79 0.16
12 12 4 0.75 0.12
14 12 4 0.13 0.16
16 12 4 0.45 0.14
18 12 4 0.51 0.13
20 12 4 1.65 0.16
22 12 4 0.83 0.18
24 12 4 0.84 0.15
26 12 4 1.49 0.19
-27 13 4 1.03 0.2
-25 13 4 1.77 0.17
-23 13 4 0.22 0.13
-21 13 4 0.05 0.11
-19 13 4 0.09 0.11
-17 13 4 0.19 0.25
-15 13 4 0.57 0.41
-13 13 4 0.83 0.14
-11 13 4 1.79 0.15
-9 13 4 9.17 0.44
-7 13 4 24.08 0.99
-5 13 4 7.41 0.37
-3 13 4 0.03 1.21
-1 13 4 5.02 0.34
1 13 4 11.54 0.64
3 13 4 0.26 0.29
5 13 4 6.04 0.28
7 13 4 2.35 0.12
9 13 4 0.95 0.1
11 13 4 0.01 0.64
13 13 4 2.94 0.16
15 13 4 3.98 0.21
17 13 4 3.47 0.21
19 13 4 4.6 0.27
21 13 4 0.54 0.14
23 13 4 2.12 0.18
25 13 4 1.67 0.18
-24 14 4 0.18 0.13
-22 14 4 0.1 0.08
-20 14 4 0.14 0.09
-18 14 4 0.12 0.11
-16 14 4 6.67 0.33
-14 14 4 5.35 0.31
-10 14 4 1.33 0.14
-8 14 4 3.42 0.22
-6 14 4 5.23 0.32
-4 14 4 1.15 0.13
-2 14 4 0.39 0.12
0 14 4 1.55 0.16
2 14 4 0.24 0.53
4 14 4 0.77 0.13
6 14 4 3.28 0.23
8 14 4 8.83 0.33
10 14 4 0.57 0.12
12 14 4 0.32 0.09
14 14 4 0.15 0.2
16 14 4 0.23 0.12
18 14 4 0.33 0.12
20 14 4 0.64 0.14
22 14 4 0.44 0.12
24 14 4 0.4 0.27
-23 15 4 0.01 0.91
-19 15 4 0.03 0.14
-17 15 4 0.05 0.2
-15 15 4 0.34 0.21
-13 15 4 0.4 0.17
-11 15 4 0.91 0.18
-9 15 4 4.02 0.24
-7 15 4 9.12 0.46
-5 15 4 2.61 0.18
-3 15 4 0.06 0.18
-1 15 4 1.75 0.18
1 15 4 3.49 0.29
3 15 4 0.1 0.15
5 15 4 1.87 0.17
7 15 4 0.82 0.1
9 15 4 0.3 0.07
11 15 4 0.08 0.09
13 15 4 1.15 0.11
15 15 4 1.29 0.12
17 15 4 1.29 0.14
19 15 4 1.51 0.17
21 15 4 0.13 0.12
-20 16 4 0.07 0.17
-18 16 4 0.3 0.27
-16 16 4 1.81 0.19
-14 16 4 1.64 0.2
-12 16 4 0.05 0.23
-10 16 4 0.59 0.14
-8 16 4 1.06 0.12
-6 16 4 1.38 0.13
-4 16 4 0.34 0.11
-2 16 4 0.24 0.1
0 16 4 0.59 0.12
2 16 4 0.1 0.12
4 16 4 0.19 0.18
6 16 4 1.13 0.13
8 16 4 2.72 0.2
10 16 4 0.23 0.08
12 16 4 0.13 0.09
14 16 4 0.27 0.37
16 16 4 0.1 0.09
18 16 4 0.17 0.12
-17 17 4 0.16 0.25
-15 17 4 0.02 1.03
-13 17 4 0.36 0.24
-11 17 4 0.33 0.17
-9 17 4 1.56 0.17
-7 17 4 2.8 0.21
-5 17 4 0.79 0.1
-3 17 4 0.24 0.25
-1 17 4 0.55 0.1
1 17 4 0.91 0.12
3 17 4 0.05 0.1
5 17 4 0.38 0.11
7 17 4 0.45 0.18
9 17 4 0.19 0.32
11 17 4 0.06 0.09
13 17 4 0.25 0.08
15 17 4 0.27 0.09
-12 18 4 0.03 0.14
-10 18 4 0.18 0.13
-8 18 4 0.36 0.12
-6 18 4 0.28 0.09
-4 18 4 0.12 0.09
-2 18 4 0.09 0.08
0 18 4 0.23 0.09
2 18 4 0.07 0.08
4 18 4 0.07 0.14
6 18 4 0.29 0.12
8 18 4 0.65 0.11
10 18 4 0.19 0.24
-3 19 4 0.08 1.72
-1 19 4 0.1 0.2
1 19 4 0.19 0.12
-36 0 5 1.51 0.55
-34 0 5 0.81 0.19
-32 0 5 12.15 0.87
-30 0 5 2.01 0.2
-28 0 5 1.45 0.19
-26 0 5 25.98 1.19
-24 0 5 5.15 0.3
-22 0 5 14.07 0.67
-20 0 5 7.18 0.4
-18 0 5 14.89 0.57
-16 0 5 41.7 1.42
-14 0 5 5.01 0.27
-12 0 5 17.33 0.7
-10 0 5 44.77 2.19
-8 0 5 38.77 2.3
-6 0 5 1123.88 60.19
-4 0 5 448.59 27.52
-2 0 5 30.21 1.79
0 0 5 42.14 2.46
2 0 5 444.41 25.64
4 0 5 1413.63 74.44
6 0 5 407.82 21.46
8 0 5 3.64 0.24
10 0 5 11.64 0.6
12 0 5 183.47 8.86
14 0 5 206.75 10.15
16 0 5 11.85 0.66
18 0 5 110.47 6.4
20 0 5 6.09 0.52
22 0 5 5.94 0.46
24 0 5 30.54 1.56
26 0 5 2 0.28
28 0 5 2.2 0.27
30 0 5 0.58 0.23
32 0 5 1.52 0.24
-35 1 5 0.26 0.15
-33 1 5 2.36 0.18
-31 1 5 3.24 0.19
-29 1 5 4.14 0.22
-27 1 5 54.73 1.66
-25 1 5 56.07 1.64
-23 1 5 12.55 0.42
-21 1 5 57.99 1.63
-19 1 5 2.27 0.14
-17 1 5 1.21 0.1
-15 1 5 2.45 0.14
-13 1 5 188.06 5.4
-11 1 5 246.73 6.9
-9 1 5 91.44 3.37
-7 1 5 117.3 4.15
-5 1 5 32.04 1.38
-3 1 5 460.78 18.53
-1 1 5 12.09 0.45
1 1 5 579.69 23.72
3 1 5 217.99 7.98
5 1 5 16.33 0.56
7 1 5 68.12 2.75
9 1 5 31.12 1.08
11 1 5 1.44 0.11
13 1 5 0.39 0.1
15 1 5 7.37 0.31
17 1 5 14.15 0.53
19 1 5 2.53 0.18
21 1 5 3.96 0.22
23 1 5 1.15 0.15
25 1 5 4.61 0.25
27 1 5 27.19 1.12
29 1 5 5.04 0.3
31 1 5 0.41 0.15
33 1 5 1.14 0.23
-36 2 5 1.28 0.36
-34 2 5 0.66 0.17
-32 2 5 11.11 0.55
-30 2 5 1.86 0.14
-28 2 5 1.47 0.14
-26 2 5 23.76 0.79
-24 2 5 4.7 0.22
-22 2 5 12.95 0.44
-20 2 5 6.76 0.26
-18 2 5 13.77 0.4
-16 2 5 39.81 1.01
-14 2 5 5.61 0.22
-12 2 5 17.8 0.55
-10 2 5 50.94 1.71
-8 2 5 44.25 1.81
-6 2 5 1015.5 38.84
-4 2 5 329.03 12.68
-2 2 5 31.61 1.35
0 2 5 43.32 1.77
2 2 5 343.52 13.75
4 2 5 1200.21 45.2
6 2 5 377.27 13.48
8 2 5 3.1 0.15
10 2 5 9.11 0.35
12 2 5 162.93 5.92
14 2 5 183.63 6.53
16 2 5 11.85 0.46
18 2 5 100.8 4.13
20 2 5 6.76 0.31
22 2 5 5.67 0.28
24 2 5 27.87 1.1
26 2 5 1.86 0.16
28 2 5 1.75 0.17
30 2 5 0.5 0.16
32 2 5 1.35 0.19
34 2 5 0.51 0.21
-35 3 5 0.16 0.16
-33 3 5 1.94 0.17
-31 3 5 2.89 0.18
-29 3 5 3.76 0.19
-27 3 5 45.24 1.6
-25 3 5 47.97 1.4
-23 3 5 9.82 0.34
-21 3 5 49.09 1.33
-19 3 5 1.8 0.13
-17 3 5 0.74 0.09
-15 3 5 2.35 0.12
-13 3 5 148.91 4.46
-11 3 5 182.59 5.08
-9 3 5 81.91 2.78
-7 3 5 94.56 3.5
-5 3 5 12.75 0.46
-3 3 5 309.31 11.93
-1 3 5 8.77 0.32
1 3 5 556.09 21.63
3 3 5 120.62 4.28
5 3 5 6.25 0.26
7 3 5 80.11 3.17
9 3 5 24.72 0.81
11 3 5 1.85 0.12
13 3 5 0.4 0.12
15 3 5 5.89 0.26
17 3 5 11.33 0.47
19 3 5 2.1 0.19
21 3 5 3.41 0.2
23 3 5 0.93 0.14
25 3 5 4.03 0.24
27 3 5 22.65 1.01
29 3 5 4.41 0.33
31 3 5 0.51 0.17
33 3 5 1.18 0.24
-36 4 5 0.97 0.31
-34 4 5 0.67 0.16
-32 4 5 8.89 0.41
-30 4 5 1.65 0.14
-28 4 5 1.31 0.13
-26 4 5 18.54 0.66
-24 4 5 3.59 0.19
-22 4 5 9.94 0.35
-20 4 5 5.65 0.22
-18 4 5 11.37 0.36
-16 4 5 30.09 0.84
-14 4 5 5.16 0.2
-12 4 5 14.68 0.43
-10 4 5 41.23 1.26
-8 4 5 39.38 1.42
-6 4 5 727.88 28.4
-4 4 5 177.07 6.58
-2 4 5 33.77 1.41
0 4 5 36.06 1.48
2 4 5 195.74 7.52
4 4 5 771.11 29.83
6 4 5 282.48 11.36
8 4 5 4.37 0.2
10 4 5 4.47 0.2
12 4 5 118.13 4.36
14 4 5 134.19 4.98
16 4 5 9.58 0.4
18 4 5 76.73 3
20 4 5 5.38 0.27
22 4 5 4.6 0.25
24 4 5 21.38 0.84
26 4 5 1.62 0.16
28 4 5 1.27 0.15
30 4 5 0.44 0.16
32 4 5 1.07 0.18
34 4 5 0.34 0.29
-35 5 5 0.7 1.34
-33 5 5 1.49 0.16
-31 5 5 2.17 0.16
-29 5 5 3.02 0.17
-27 5 5 34.99 1.19
-25 5 5 36.35 1.1
-23 5 5 6.17 0.25
-21 5 5 35.82 1.08
-19 5 5 1.23 0.12
-17 5 5 0.3 0.1
-15 5 5 1.77 0.12
-13 5 5 95.9 3.01
-11 5 5 116.93 3.52
-9 5 5 57.55 2.09
-7 5 5 68.42 2.65
-5 5 5 2.22 0.13
-3 5 5 143.33 5.44
-1 5 5 9.86 0.35
1 5 5 355.87 14.02
3 5 5 78.18 2.98
5 5 5 3.81 0.18
7 5 5 50.56 2.04
9 5 5 18.35 0.62
11 5 5 1.16 0.12
13 5 5 0.54 0.11
15 5 5 4.09 0.21
17 5 5 7.11 0.31
19 5 5 1.69 0.16
21 5 5 2.54 0.18
23 5 5 0.6 0.14
25 5 5 3.03 0.21
27 5 5 16.48 0.83
29 5 5 3.12 0.23
31 5 5 0.38 0.17
33 5 5 0.9 0.21
-34 6 5 0.56 0.19
-32 6 5 6.39 0.39
-30 6 5 1.39 0.14
-28 6 5 1.07 0.13
-26 6 5 12.23 0.47
-24 6 5 2.36 0.15
-22 6 5 6.37 0.25
-20 6 5 4.33 0.22
-18 6 5 8.46 0.31
-16 6 5 16.45 0.51
-14 6 5 3.56 0.17
-12 6 5 7.87 0.26
-10 6 5 19.9 0.56
-8 6 5 27.43 0.8
-6 6 5 409.23 15.59
-4 6 5 96.39 3.75
-2 6 5 27.43 1.12
0 6 5 23.97 0.98
2 6 5 116.72 4.34
4 6 5 421.15 16.05
6 6 5 166.19 5.85
8 6 5 6.77 0.28
10 6 5 1.5 0.11
12 6 5 75.37 3
14 6 5 83.81 3.42
16 6 5 6.89 0.33
18 6 5 50.12 1.66
20 6 5 3.72 0.23
22 6 5 3.31 0.24
24 6 5 14.34 0.59
26 6 5 1.4 0.16
28 6 5 0.63 0.14
30 6 5 0.46 0.16
32 6 5 0.78 0.17
-33 7 5 0.91 0.16
-31 7 5 1.49 0.16
-29 7 5 2.1 0.15
-27 7 5 22.28 0.79
-25 7 5 24.02 0.8
-23 7 5 3.04 0.16
-21 7 5 21.45 0.74
-19 7 5 0.64 0.12
-17 7 5 0.09 0.1
-15 7 5 1.06 0.11
-13 7 5 52.4 1.76
-11 7 5 68.01 2.29
-9 7 5 34.55 1.04
-7 7 5 42.55 1.5
-5 7 5 0.01 0.67
-3 7 5 54.93 2.18
-1 7 5 9.73 0.35
1 7 5 194.61 7.31
3 7 5 52.94 2.2
5 7 5 2.45 0.14
7 7 5 24.59 0.82
9 7 5 12.05 0.44
11 7 5 0.51 0.11
13 7 5 0.53 0.12
15 7 5 2.58 0.16
17 7 5 3.62 0.21
19 7 5 1.24 0.17
21 7 5 1.73 0.15
23 7 5 0.39 0.14
25 7 5 2.02 0.2
27 7 5 10.23 0.64
29 7 5 2.25 0.22
31 7 5 0.25 0.18
-32 8 5 3.79 0.28
-30 8 5 0.93 0.14
-28 8 5 0.77 0.12
-26 8 5 6.81 0.31
-24 8 5 1.28 0.13
-22 8 5 3.54 0.21
-20 8 5 2.97 0.17
-18 8 5 5.6 0.23
-16 8 5 7.48 0.29
-14 8 5 2.67 0.15
-12 8 5 3.87 0.18
-10 8 5 9.14 0.32
-8 8 5 17.02 0.53
-6 8 5 205.44 6.98
-4 8 5 44.68 1.85
-2 8 5 15.61 0.59
0 8 5 14.79 0.54
2 8 5 62.51 2.54
4 8 5 207.92 7.95
6 8 5 93.29 3.59
8 8 5 6.75 0.28
10 8 5 0.45 0.1
12 8 5 40.97 1.38
14 8 5 44.76 1.5
16 8 5 4.5 0.23
18 8 5 27.78 1
20 8 5 2.18 0.17
22 8 5 2.06 0.16
24 8 5 8.17 0.38
26 8 5 0.98 0.16
28 8 5 0.39 0.15
30 8 5 0.33 0.18
-31 9 5 0.97 0.14
-29 9 5 1.39 0.14
-27 9 5 11.91 0.6
-25 9 5 13.63 0.54
-23 9 5 1.15 0.14
-21 9 5 10.86 0.44
-19 9 5 0.36 0.1
-17 9 5 0.13 0.1
-15 9 5 0.71 0.11
-13 9 5 24.03 0.76
-11 9 5 33.8 1
-9 9 5 19.35 0.6
-7 9 5 22.78 0.7
-5 9 5 0.14 0.19
-3 9 5 19.25 0.76
-1 9 5 7.55 0.34
1 9 5 107.47 4.46
3 9 5 31.17 1.21
5 9 5 1.13 0.12
7 9 5 11.19 0.42
9 9 5 6.44 0.29
11 9 5 0.3 0.1
13 9 5 0.54 0.11
15 9 5 1.3 0.13
17 9 5 1.39 0.14
19 9 5 0.83 0.17
21 9 5 0.96 0.14
23 9 5 0.22 0.16
25 9 5 1.14 0.15
27 9 5 5.27 0.32
29 9 5 1.28 0.18
-30 10 5 0.59 0.14
-28 10 5 0.59 0.13
-26 10 5 3.18 0.2
-24 10 5 0.63 0.14
-22 10 5 1.65 0.14
-20 10 5 1.74 0.13
-18 10 5 3.11 0.18
-16 10 5 2.67 0.16
-14 10 5 1.7 0.12
-12 10 5 1.83 0.13
-10 10 5 4.04 0.19
-8 10 5 9.24 0.35
-6 10 5 93.23 3.97
-4 10 5 19.53 0.78
-2 10 5 7.41 0.39
0 10 5 8.3 0.38
2 10 5 31.46 1.19
4 10 5 94.91 3.81
6 10 5 46.33 1.86
8 10 5 5.1 0.24
10 10 5 0.35 0.29
12 10 5 20.04 0.72
14 10 5 19.9 0.73
16 10 5 2.58 0.17
18 10 5 13.39 0.55
20 10 5 1.23 0.15
22 10 5 1.26 0.17
24 10 5 3.96 0.25
26 10 5 0.62 0.16
28 10 5 0.21 0.17
-29 11 5 0.71 0.14
-27 11 5 5.55 0.33
-25 11 5 6.39 0.31
-23 11 5 0.35 0.11
-21 11 5 4.6 0.23
-19 11 5 0.22 0.11
-17 11 5 0.2 0.11
-15 11 5 0.46 0.1
-13 11 5 9.45 0.35
-11 11 5 14.88 0.49
-9 11 5 9.63 0.39
-7 11 5 10.7 0.48
-5 11 5 0.21 0.14
-3 11 5 5.47 0.36
-1 11 5 5.05 0.33
1 11 5 51.56 2.21
3 11 5 16.7 0.59
5 11 5 0.54 0.09
7 11 5 4.13 0.2
9 11 5 3.01 0.17
11 11 5 0.18 0.16
13 11 5 0.45 0.12
15 11 5 0.51 0.12
17 11 5 0.45 0.13
19 11 5 0.54 0.13
21 11 5 0.55 0.14
23 11 5 0.23 0.17
25 11 5 0.57 0.15
27 11 5 2.25 0.25
-28 12 5 0.4 0.16
-26 12 5 1.19 0.15
-24 12 5 0.31 0.1
-22 12 5 0.66 0.13
-20 12 5 0.85 0.13
-18 12 5 1.44 0.12
-16 12 5 0.69 0.16
-14 12 5 0.73 0.11
-12 12 5 0.75 0.14
-10 12 5 1.44 0.14
-8 12 5 4.21 0.26
-6 12 5 37.74 1.74
-4 12 5 7.42 0.46
-2 12 5 2.88 0.25
0 12 5 4.29 0.29
2 12 5 13.9 0.61
4 12 5 38.73 1.41
6 12 5 20.83 0.76
8 12 5 3.25 0.18
10 12 5 0.5 0.68
12 12 5 8.46 0.36
14 12 5 7.59 0.35
16 12 5 1.23 0.13
18 12 5 5.54 0.29
20 12 5 0.71 0.16
22 12 5 0.68 0.15
24 12 5 1.77 0.21
26 12 5 0.4 0.16
-25 13 5 2.63 0.21
-23 13 5 0.03 0.11
-21 13 5 1.5 0.14
-19 13 5 0.1 0.1
-17 13 5 0.22 0.09
-15 13 5 0.26 0.08
-13 13 5 3.22 0.21
-11 13 5 5.68 0.26
-9 13 5 4.32 0.26
-7 13 5 4.35 0.29
-5 13 5 0.26 0.14
-3 13 5 0.86 0.18
-1 13 5 2.77 0.22
1 13 5 22.19 1.11
3 13 5 7.76 0.42
5 13 5 0.35 0.15
7 13 5 1.27 0.12
9 13 5 1.19 0.12
11 13 5 0.06 0.15
13 13 5 0.26 0.11
15 13 5 0.22 0.13
17 13 5 0.65 0.62
19 13 5 0.38 0.16
21 13 5 0.26 0.15
23 13 5 0.2 0.16
25 13 5 0.39 0.18
-24 14 5 0.1 0.13
-22 14 5 0.24 0.09
-20 14 5 0.35 0.1
-18 14 5 0.61 0.09
-16 14 5 0.35 0.16
-14 14 5 0.5 0.13
-12 14 5 0.28 0.13
-10 14 5 0.44 0.13
-8 14 5 1.75 0.16
-6 14 5 12.78 0.6
-4 14 5 2.35 0.21
-2 14 5 0.97 0.14
0 14 5 1.81 0.18
2 14 5 5.68 0.36
4 14 5 13.33 0.58
6 14 5 7.92 0.3
8 14 5 1.67 0.12
10 14 5 0.19 0.27
12 14 5 2.86 0.18
14 14 5 2.31 0.17
16 14 5 0.55 0.13
18 14 5 1.77 0.17
20 14 5 0.32 0.18
22 14 5 0.27 0.21
-21 15 5 0.4 0.09
-19 15 5 0.06 0.08
-17 15 5 0.22 0.16
-15 15 5 0.44 0.2
-13 15 5 0.83 0.14
-11 15 5 1.87 0.17
-9 15 5 1.62 0.15
-7 15 5 1.58 0.15
-5 15 5 0.58 0.45
-3 15 5 0.08 0.13
-1 15 5 1.4 0.16
1 15 5 7.96 0.48
3 15 5 2.95 0.24
5 15 5 0.17 0.32
7 15 5 0.35 0.07
9 15 5 0.46 0.08
11 15 5 0.09 0.16
13 15 5 0.08 0.09
15 15 5 0.31 0.38
17 15 5 0.06 0.11
19 15 5 0.11 0.11
21 15 5 0.31 0.8
-18 16 5 0.2 0.19
-16 16 5 0.04 0.18
-14 16 5 0.33 0.27
-12 16 5 0.2 0.28
-10 16 5 0.05 0.13
-8 16 5 0.67 0.14
-6 16 5 3.59 0.26
-4 16 5 0.64 0.11
-2 16 5 0.32 0.12
0 16 5 0.75 0.13
2 16 5 1.88 0.18
4 16 5 4 0.3
6 16 5 2.61 0.2
8 16 5 0.68 0.08
10 16 5 0.08 0.08
12 16 5 0.77 0.09
14 16 5 0.59 0.1
16 16 5 0.26 0.12
18 16 5 0.51 0.12
-15 17 5 0.16 0.18
-13 17 5 0.22 0.15
-11 17 5 0.49 0.11
-9 17 5 0.44 0.12
-7 17 5 0.56 0.12
-5 17 5 0.07 0.11
-3 17 5 0.05 0.14
-1 17 5 0.56 0.11
1 17 5 2.57 0.23
3 17 5 0.91 0.15
5 17 5 0.15 0.26
7 17 5 0.15 0.16
9 17 5 0.17 0.09
11 17 5 0.06 0.13
13 17 5 0.07 0.07
15 17 5 0.09 0.16
-10 18 5 0.06 0.15
-8 18 5 0.23 0.14
-6 18 5 0.86 0.11
-4 18 5 0.16 0.1
-2 18 5 0.07 0.1
0 18 5 0.3 0.1
2 18 5 0.58 0.14
4 18 5 0.92 0.12
6 18 5 0.62 0.12
8 18 5 0.24 0.19
-34 0 6 5.16 0.57
-32 0 6 21.61 1.57
-30 0 6 3.19 0.27
-28 0 6 1.02 0.19
-26 0 6 0.89 0.23
-24 0 6 0.29 0.77
-22 0 6 6 0.34
-20 0 6 2.96 0.2
-18 0 6 45.99 1.73
-16 0 6 43.61 1.64
-14 0 6 36.61 1.37
-12 0 6 3.2 0.2
-10 0 6 295.89 15.05
-8 0 6 118.59 6.28
-6 0 6 51.61 2.94
-4 0 6 12.12 0.6
-2 0 6 2.58 0.2
0 0 6 96.2 4.9
2 0 6 110.09 5.51
4 0 6 9.37 0.63
6 0 6 2.94 0.22
8 0 6 20.68 1
10 0 6 68.38 3.82
12 0 6 40.89 1.88
14 0 6 54.14 3
16 0 6 128.61 7.27
18 0 6 26.35 1.31
20 0 6 21.4 1.12
22 0 6 27.38 1.4
24 0 6 2.52 0.3
26 0 6 0.27 0.2
28 0 6 0.73 0.2
30 0 6 5.34 0.53
32 0 6 5.04 0.79
-35 1 6 0.34 0.17
-33 1 6 4.52 0.26
-31 1 6 7 0.32
-29 1 6 0.67 0.13
-27 1 6 0.66 0.12
-25 1 6 0.27 0.14
-23 1 6 27.87 0.84
-21 1 6 26.58 0.78
-19 1 6 22.51 0.66
-17 1 6 206.02 6.11
-15 1 6 122.74 3.91
-13 1 6 117.72 3.62
-11 1 6 159.24 4.72
-9 1 6 0.32 0.1
-7 1 6 83.3 3.14
-5 1 6 54.47 2.19
-3 1 6 565.7 22.85
-1 1 6 1052.27 40.97
1 1 6 348.41 12.87
3 1 6 201.97 10.01
5 1 6 1.07 0.09
7 1 6 254.85 9.65
9 1 6 4.73 0.22
11 1 6 120.08 4.46
13 1 6 2.29 0.15
15 1 6 0.37 0.13
17 1 6 69.65 2.75
19 1 6 9.93 0.41
21 1 6 22.16 0.83
23 1 6 1.86 0.17
25 1 6 2.21 0.18
27 1 6 0.27 0.19
29 1 6 1.63 0.17
31 1 6 1.7 0.21
33 1 6 0.51 0.21
-36 2 6 0.33 1.12
-34 2 6 4.97 0.29
-32 2 6 20.51 1.03
-30 2 6 2.97 0.18
-28 2 6 0.92 0.15
-26 2 6 0.81 0.14
-24 2 6 0.76 0.76
-22 2 6 5.42 0.24
-20 2 6 2.69 0.15
-18 2 6 40.98 1.11
-16 2 6 38.76 1.05
-14 2 6 33.29 0.9
-12 2 6 3.14 0.15
-10 2 6 250.75 8.54
-8 2 6 107.25 4.6
-6 2 6 46.76 1.91
-4 2 6 19.53 0.67
-2 2 6 0.28 0.09
0 2 6 79.34 3.05
2 2 6 127.43 4.41
4 2 6 4.69 0.2
6 2 6 3.74 0.18
8 2 6 18.6 0.63
10 2 6 61.49 2.48
12 2 6 38.23 1.24
14 2 6 51.55 1.78
16 2 6 115.68 4.55
18 2 6 25.91 0.95
20 2 6 19.61 0.75
22 2 6 25.34 0.93
24 2 6 2.36 0.17
26 2 6 0.29 0.16
28 2 6 0.51 0.16
30 2 6 5.36 0.35
32 2 6 4.58 0.5
-35 3 6 0.18 0.17
-33 3 6 4.02 0.24
-31 3 6 5.9 0.28
-29 3 6 0.57 0.12
-27 3 6 0.58 0.13
-25 3 6 0.23 0.13
-23 3 6 22.55 0.91
-21 3 6 23.21 0.7
-19 3 6 19.96 0.62
-17 3 6 174.62 5.33
-15 3 6 107.87 3.46
-13 3 6 96.34 3.04
-11 3 6 128.08 4.11
-9 3 6 0.22 0.17
-7 3 6 62.86 2.56
-5 3 6 40.55 1.7
-3 3 6 394.39 15.13
-1 3 6 835.88 32.36
1 3 6 296.94 11.21
3 3 6 153.74 5.7
5 3 6 0.03 0.09
7 3 6 191.53 6.63
9 3 6 2.31 0.15
11 3 6 94.91 3.72
13 3 6 1.08 0.12
15 3 6 0.34 0.13
17 3 6 56.28 1.9
19 3 6 8.21 0.36
21 3 6 18.27 0.72
23 3 6 1.54 0.15
25 3 6 1.89 0.16
27 3 6 0.13 0.16
29 3 6 1.33 0.2
31 3 6 1.23 0.2
33 3 6 0.73 0.24
-34 4 6 3.93 0.31
-32 4 6 16.24 0.82
-30 4 6 2.58 0.17
-28 4 6 0.54 0.14
-26 4 6 0.69 0.13
-24 4 6 0.17 0.51
-22 4 6 3.95 0.2
-20 4 6 1.78 0.13
-18 4 6 30.87 0.9
-16 4 6 29.71 0.82
-14 4 6 25.12 0.7
-12 4 6 2.46 0.13
-10 4 6 168.03 5.24
-8 4 6 72.49 2.85
-6 4 6 37.49 1.49
-4 4 6 19.4 0.67
-2 4 6 2.75 0.15
0 4 6 50.52 2.06
2 4 6 105.32 3.85
4 4 6 2.23 0.13
6 4 6 4.3 0.2
8 4 6 14.71 0.53
10 4 6 45.5 1.81
12 4 6 30.92 1.02
14 4 6 41.18 1.36
16 4 6 90.11 3.75
18 4 6 20.95 0.77
20 4 6 14.77 0.57
22 4 6 19.98 0.78
24 4 6 1.77 0.19
26 4 6 0.15 0.16
28 4 6 0.52 0.14
30 4 6 4.13 0.29
32 4 6 3.85 0.34
-35 5 6 0.14 0.36
-33 5 6 2.84 0.21
-31 5 6 4.42 0.26
-29 5 6 0.49 0.13
-27 5 6 0.59 0.12
-25 5 6 0.39 0.12
-23 5 6 16.81 0.6
-21 5 6 16.33 0.54
-19 5 6 16.69 0.58
-17 5 6 129.35 4.52
-15 5 6 76.04 2.55
-13 5 6 62.13 2.1
-11 5 6 81.66 2.68
-9 5 6 0.15 0.24
-7 5 6 38.35 1.49
-5 5 6 26.99 0.97
-3 5 6 245.16 9.03
-1 5 6 539.99 22.2
1 5 6 204.9 7.7
3 5 6 115.66 4.24
5 5 6 0.4 0.09
7 5 6 108.8 4.01
9 5 6 0.72 0.1
11 5 6 63.37 2.65
13 5 6 0.77 0.15
15 5 6 0.16 0.13
17 5 6 39.22 1.36
19 5 6 5.88 0.3
21 5 6 12.26 0.51
23 5 6 1.03 0.14
25 5 6 1.43 0.15
27 5 6 0.24 0.16
29 5 6 0.95 0.16
31 5 6 0.93 0.19
33 5 6 0.48 0.34
-34 6 6 2.89 0.31
-32 6 6 11.3 0.72
-30 6 6 2.17 0.16
-28 6 6 0.39 0.12
-26 6 6 0.57 0.13
-24 6 6 0.19 0.14
-22 6 6 2.32 0.15
-20 6 6 0.81 0.14
-18 6 6 19.8 0.65
-16 6 6 20.02 0.66
-14 6 6 14.9 0.45
-12 6 6 1.68 0.12
-10 6 6 96.63 3.33
-8 6 6 36.31 1.37
-6 6 6 26.25 0.88
-4 6 6 10.14 0.38
-2 6 6 1.56 0.12
0 6 6 26.56 1.01
2 6 6 58.11 2.34
4 6 6 1.97 0.17
6 6 6 3.74 0.18
8 6 6 11.37 0.42
10 6 6 29.18 0.97
12 6 6 21.36 0.75
14 6 6 28.61 0.98
16 6 6 61.47 2.16
18 6 6 15.06 0.59
20 6 6 9.01 0.39
22 6 6 13.47 0.55
24 6 6 1.41 0.16
26 6 6 0.25 0.26
28 6 6 0.4 0.16
30 6 6 2.71 0.3
32 6 6 2.63 0.32
-33 7 6 1.72 0.25
-31 7 6 2.65 0.2
-29 7 6 0.25 0.14
-27 7 6 0.45 0.13
-25 7 6 0.47 0.16
-23 7 6 10.22 0.41
-21 7 6 9.81 0.37
-19 7 6 12.31 0.45
-17 7 6 84.79 3.2
-15 7 6 46.44 1.39
-13 7 6 34.28 0.93
-11 7 6 43.34 1.32
-9 7 6 0.27 0.36
-7 7 6 21.01 0.72
-5 7 6 14.6 0.52
-3 7 6 135.53 5.27
-1 7 6 291.49 11.83
1 7 6 128.94 4.98
3 7 6 79.55 3.07
5 7 6 0.98 0.12
7 7 6 51.76 2.19
9 7 6 0.13 0.1
11 7 6 36.87 1.23
13 7 6 0.13 0.13
15 7 6 0.48 0.23
17 7 6 22.62 0.82
19 7 6 3.56 0.22
21 7 6 6.9 0.32
23 7 6 0.48 0.16
25 7 6 0.91 0.14
27 7 6 0.33 0.16
29 7 6 0.79 0.16
31 7 6 0.7 0.16
-32 8 6 6.7 0.54
-30 8 6 1.46 0.18
-28 8 6 0.16 0.14
-26 8 6 0.42 0.14
-24 8 6 0.38 0.13
-22 8 6 1.09 0.15
-20 8 6 0.46 0.11
-18 8 6 10.76 0.4
-16 8 6 11.5 0.42
-14 8 6 7.45 0.29
-12 8 6 1.05 0.1
-10 8 6 48.6 1.66
-8 8 6 16.52 0.52
-6 8 6 16.13 0.57
-4 8 6 6.2 0.26
-2 8 6 1.05 0.1
0 8 6 11.66 0.43
2 8 6 30.65 1.21
4 8 6 1.4 0.16
6 8 6 3.04 0.17
8 8 6 7.26 0.3
10 8 6 16.2 0.59
12 8 6 12.82 0.49
14 8 6 18.21 0.67
16 8 6 36.86 1.29
18 8 6 9.56 0.42
20 8 6 4.64 0.25
22 8 6 7.95 0.36
24 8 6 0.78 0.15
26 8 6 0.02 0.91
28 8 6 0.19 0.16
30 8 6 1.56 0.17
-31 9 6 1.48 0.18
-29 9 6 0.21 0.16
-27 9 6 0.29 0.13
-25 9 6 0.4 0.14
-23 9 6 5.21 0.32
-21 9 6 5.12 0.24
-19 9 6 7.78 0.34
-17 9 6 47.69 1.48
-15 9 6 25.47 0.82
-13 9 6 15.46 0.53
-11 9 6 19.97 0.6
-9 9 6 0.32 0.41
-7 9 6 9.79 0.34
-5 9 6 6.76 0.27
-3 9 6 61.74 2.54
-1 9 6 141.4 5.69
1 9 6 76.04 3.04
3 9 6 46.27 1.98
5 9 6 1.1 0.14
7 9 6 21.2 0.73
9 9 6 0.14 0.12
11 9 6 18.58 0.67
13 9 6 0.11 0.21
15 9 6 0.28 0.25
17 9 6 11.3 0.49
19 9 6 1.79 0.17
21 9 6 3.22 0.21
23 9 6 0.37 0.15
25 9 6 0.58 0.17
27 9 6 0.17 0.15
29 9 6 0.54 0.16
-30 10 6 0.97 0.15
-28 10 6 0.07 0.13
-26 10 6 0.16 0.13
-24 10 6 0.31 0.14
-22 10 6 0.38 0.13
-20 10 6 0.24 0.12
-18 10 6 4.72 0.23
-16 10 6 5.71 0.25
-14 10 6 3.06 0.16
-12 10 6 0.56 0.11
-10 10 6 21 0.67
-8 10 6 6.84 0.26
-6 10 6 8.55 0.3
-4 10 6 4.18 0.24
-2 10 6 0.65 0.13
0 10 6 4.17 0.2
2 10 6 15.12 0.55
4 10 6 0.74 0.11
6 10 6 2.32 0.15
8 10 6 4.23 0.21
10 10 6 7.64 0.34
12 10 6 6.74 0.31
14 10 6 10.36 0.46
16 10 6 19.18 0.75
18 10 6 5.32 0.28
20 10 6 2.09 0.19
22 10 6 4.12 0.27
24 10 6 0.47 0.17
26 10 6 0.43 0.66
28 10 6 0.35 0.26
-29 11 6 0.2 0.22
-27 11 6 0.17 0.15
-25 11 6 0.12 0.13
-23 11 6 2.26 0.18
-21 11 6 2.27 0.2
-19 11 6 4.28 0.21
-17 11 6 22.69 0.77
-15 11 6 11.84 0.43
-13 11 6 5.51 0.23
-11 11 6 7.8 0.31
-7 11 6 3.69 0.23
-5 11 6 2.57 0.18
-3 11 6 24.79 1
-1 11 6 64.05 2.74
1 11 6 40.18 1.51
3 11 6 24.04 0.84
5 11 6 0.92 0.13
7 11 6 7.04 0.31
9 11 6 0.32 0.11
11 11 6 8.14 0.36
13 11 6 0.2 0.48
15 11 6 0.11 0.13
17 11 6 4.58 0.26
19 11 6 0.87 0.16
21 11 6 1.28 0.16
23 11 6 0.14 0.18
25 11 6 0.13 0.17
27 11 6 0.43 0.21
-28 12 6 0.01 1.05
-26 12 6 0.15 0.15
-24 12 6 0.25 0.17
-22 12 6 0.17 0.27
-20 12 6 0.05 0.11
-18 12 6 1.92 0.14
-16 12 6 2.46 0.16
-14 12 6 1.05 0.1
-12 12 6 0.35 0.08
-10 12 6 7.69 0.33
-8 12 6 2.31 0.16
-6 12 6 3.89 0.3
-4 12 6 2.27 0.21
-2 12 6 0.36 0.17
0 12 6 1.27 0.16
2 12 6 6.24 0.35
4 12 6 0.51 0.11
6 12 6 1.48 0.12
8 12 6 2.27 0.16
10 12 6 3.1 0.18
12 12 6 3.17 0.19
14 12 6 5.25 0.26
16 12 6 8.74 0.4
18 12 6 2.64 0.21
20 12 6 0.79 0.15
22 12 6 1.67 0.18
24 12 6 0.14 0.18
-25 13 6 0.19 0.27
-23 13 6 0.81 0.12
-21 13 6 0.85 0.14
-19 13 6 2.1 0.15
-17 13 6 9.32 0.37
-15 13 6 4.61 0.21
-13 13 6 1.62 0.13
-11 13 6 2.51 0.18
-9 13 6 0.13 0.44
-7 13 6 1.3 0.15
-5 13 6 0.76 0.16
-3 13 6 8.82 0.53
-1 13 6 25.03 1.26
1 13 6 18.17 0.84
3 13 6 10.79 0.51
5 13 6 0.64 0.1
7 13 6 1.82 0.14
9 13 6 0.35 0.11
11 13 6 3.01 0.2
13 13 6 0.3 0.46
15 13 6 0.44 0.5
17 13 6 1.69 0.17
19 13 6 0.41 0.15
21 13 6 0.44 0.17
23 13 6 0.08 0.15
-24 14 6 0.08 0.16
-22 14 6 0.21 0.14
-20 14 6 0.07 0.1
-18 14 6 0.58 0.09
-16 14 6 0.85 0.09
-14 14 6 0.38 0.13
-12 14 6 0.25 0.13
-10 14 6 2.34 0.2
-8 14 6 0.63 0.13
-6 14 6 1.62 0.16
-4 14 6 0.97 0.16
-2 14 6 0.04 0.15
0 14 6 0.36 0.14
2 14 6 1.95 0.18
4 14 6 0.36 0.33
6 14 6 0.75 0.1
8 14 6 0.96 0.1
10 14 6 0.99 0.14
12 14 6 1.21 0.13
14 14 6 2.17 0.16
16 14 6 3.3 0.21
18 14 6 1.08 0.14
20 14 6 0.29 0.16
22 14 6 0.49 0.17
-21 15 6 0.37 0.12
-19 15 6 0.74 0.09
-17 15 6 3.37 0.23
-15 15 6 1.62 0.15
-13 15 6 0.41 0.17
-11 15 6 0.62 0.15
-9 15 6 0.04 0.15
-7 15 6 0.38 0.13
-5 15 6 0.36 0.15
-3 15 6 2.73 0.24
-1 15 6 8.48 0.52
1 15 6 7.23 0.47
3 15 6 4.06 0.27
5 15 6 0.68 0.29
7 15 6 0.3 0.07
9 15 6 0.2 0.09
11 15 6 0.84 0.13
13 15 6 0.34 0.39
15 15 6 0.19 0.14
17 15 6 0.5 0.12
19 15 6 0.12 0.13
-18 16 6 0.14 0.19
-16 16 6 0.47 0.21
-14 16 6 0.06 0.14
-12 16 6 0.09 0.14
-10 16 6 0.63 0.13
-8 16 6 0.22 0.16
-6 16 6 0.5 0.12
-4 16 6 0.37 0.12
-2 16 6 0.11 0.27
0 16 6 0.08 0.13
2 16 6 0.61 0.15
4 16 6 0.82 0.35
6 16 6 0.3 0.17
8 16 6 0.38 0.09
10 16 6 0.29 0.08
12 16 6 0.34 0.1
14 16 6 0.66 0.11
16 16 6 0.95 0.13
-15 17 6 0.68 0.23
-13 17 6 0.06 0.17
-11 17 6 0.16 0.12
-9 17 6 0.02 0.9
-7 17 6 0.31 0.26
-5 17 6 0.09 0.15
-3 17 6 0.7 0.13
-1 17 6 2.48 0.21
1 17 6 2.3 0.21
3 17 6 1.12 0.17
5 17 6 0.11 0.13
7 17 6 0.07 0.16
9 17 6 0.17 0.15
11 17 6 0.25 0.11
13 17 6 0.06 0.11
-8 18 6 0.14 0.17
-6 18 6 0.24 0.14
-4 18 6 0.25 0.19
-2 18 6 0.04 0.11
0 18 6 0.11 0.15
2 18 6 0.19 0.12
4 18 6 0.07 0.18
6 18 6 0.06 0.11
-34 0 7 0.22 0.21
-32 0 7 0.75 0.18
-30 0 7 0.12 0.39
-28 0 7 0.71 0.18
-26 0 7 0.43 1.47
-24 0 7 38.66 2
-22 0 7 123.15 6.36
-20 0 7 6.76 0.36
-18 0 7 0.37 0.15
-16 0 7 51.12 1.91
-14 0 7 10.61 0.49
-12 0 7 296.05 12.64
-10 0 7 6.42 0.39
-8 0 7 161.02 8.12
-6 0 7 35.03 1.83
-4 0 7 46.12 2.69
-2 0 7 22.31 1.05
0 0 7 169.31 8.58
2 0 7 62.45 3.52
4 0 7 88.06 4.69
6 0 7 3.58 0.25
8 0 7 14.73 0.74
10 0 7 76.34 4.3
12 0 7 32.73 1.53
14 0 7 100.79 5.82
16 0 7 74.32 4.59
18 0 7 1.76 0.22
20 0 7 4.51 0.33
22 0 7 0.76 0.23
24 0 7 0.97 0.19
26 0 7 1.87 0.23
28 0 7 3.37 0.31
30 0 7 0.29 0.21
-35 1 7 0.21 0.22
-33 1 7 0.31 0.51
-31 1 7 0.21 0.19
-29 1 7 2.66 0.17
-27 1 7 2.47 0.17
-25 1 7 2.01 0.18
-23 1 7 10.55 0.4
-21 1 7 7.11 0.27
-19 1 7 1.53 0.12
-17 1 7 83.56 2.81
-15 1 7 114.22 3.65
-13 1 7 16.4 0.49
-11 1 7 29.31 0.98
-9 1 7 111.88 4.17
-7 1 7 3.66 0.19
-5 1 7 29.14 0.96
-3 1 7 0.26 0.25
-1 1 7 11.64 0.43
1 1 7 3.61 0.17
5 1 7 0.07 0.1
7 1 7 40.31 1.77
9 1 7 273.84 9.96
11 1 7 237.96 8.4
13 1 7 22.08 0.79
15 1 7 0.58 0.13
17 1 7 0.14 0.21
19 1 7 4.67 0.25
21 1 7 8.77 0.39
23 1 7 0.12 0.18
25 1 7 1.92 0.17
27 1 7 3.83 0.24
29 1 7 1.52 0.16
31 1 7 0.15 0.19
-34 2 7 0.35 0.14
-32 2 7 0.72 0.14
-30 2 7 0.56 0.62
-28 2 7 0.55 0.13
-24 2 7 36.36 1.31
-22 2 7 112.41 4.68
-20 2 7 6.87 0.26
-18 2 7 0.28 0.12
-16 2 7 46.86 1.25
-14 2 7 9.33 0.31
-12 2 7 271.76 8.37
-10 2 7 6.38 0.27
-8 2 7 129.42 4.76
-6 2 7 35.15 1.28
-4 2 7 41.84 2
-2 2 7 19.32 0.67
0 2 7 138.8 5.02
2 2 7 50.35 2.13
4 2 7 81.28 3.11
6 2 7 2.09 0.13
8 2 7 15.76 0.56
10 2 7 70.76 2.84
12 2 7 28.6 0.97
14 2 7 92.13 3.84
16 2 7 68.58 2.71
18 2 7 1.63 0.15
20 2 7 4.24 0.23
22 2 7 0.71 0.15
24 2 7 0.77 0.14
26 2 7 1.76 0.17
28 2 7 3.26 0.22
30 2 7 0.27 0.16
32 2 7 0.19 0.43
-35 3 7 0.28 0.38
-33 3 7 0.01 0.96
-31 3 7 0.27 0.29
-29 3 7 2.23 0.18
-27 3 7 2.22 0.18
-25 3 7 1.52 0.16
-23 3 7 8.74 0.35
-21 3 7 5.54 0.24
-19 3 7 1.44 0.13
-17 3 7 70.83 2.29
-15 3 7 93.73 3.07
-13 3 7 14.85 0.45
-11 3 7 23.51 0.75
-9 3 7 89.43 3.46
-7 3 7 8.86 0.34
-5 3 7 22.74 0.75
-3 3 7 0.57 0.1
-1 3 7 13.26 0.5
1 3 7 2.12 0.17
3 3 7 0.49 0.37
5 3 7 0.26 0.28
7 3 7 35.42 1.3
9 3 7 233.7 8.05
11 3 7 202.43 7.11
13 3 7 21.12 0.75
15 3 7 0.6 0.14
17 3 7 0.06 0.21
19 3 7 3.67 0.21
21 3 7 7.47 0.35
23 3 7 0.11 0.15
25 3 7 1.73 0.18
27 3 7 3.32 0.22
29 3 7 1.32 0.17
31 3 7 0.07 0.19
-34 4 7 0.14 0.21
-32 4 7 0.52 0.16
-30 4 7 0.32 0.5
-28 4 7 0.42 0.13
-26 4 7 0.01 0.84
-24 4 7 29.76 1.03
-22 4 7 90.06 3.26
-20 4 7 6.34 0.25
-18 4 7 0.08 0.12
-16 4 7 36.77 1.01
-14 4 7 6.86 0.25
-12 4 7 204 6.5
-10 4 7 6.59 0.29
-8 4 7 87.59 3.4
-6 4 7 26.32 0.87
-4 4 7 33.35 1.26
-2 4 7 16.39 0.59
0 4 7 82.32 3.14
2 4 7 29.62 1.15
4 4 7 61.76 2.5
6 4 7 0.56 0.13
8 4 7 14.46 0.53
10 4 7 51.35 2.05
12 4 7 19.99 0.72
14 4 7 71.16 3.2
16 4 7 54.11 1.8
18 4 7 1.51 0.14
20 4 7 3.11 0.2
22 4 7 0.54 0.14
24 4 7 0.59 0.15
26 4 7 1.47 0.16
28 4 7 2.49 0.2
30 4 7 0.23 0.16
32 4 7 0.42 1.01
-33 5 7 0.15 0.41
-29 5 7 1.45 0.16
-27 5 7 1.72 0.15
-25 5 7 0.91 0.16
-23 5 7 6.38 0.29
-21 5 7 3.61 0.2
-19 5 7 1.53 0.13
-17 5 7 51.42 1.39
-15 5 7 66.53 2.23
-13 5 7 10.26 0.34
-11 5 7 17.05 0.55
-9 5 7 69.21 2.84
-7 5 7 9.68 0.38
-5 5 7 12.5 0.46
-3 5 7 0.35 0.09
-1 5 7 9.3 0.36
1 5 7 1.08 0.1
3 5 7 0.38 0.1
5 5 7 0.03 0.1
7 5 7 26.81 0.89
9 5 7 166.48 6.17
11 5 7 152.3 5.65
13 5 7 18.27 0.67
15 5 7 0.5 0.13
17 5 7 0.03 0.13
19 5 7 2.37 0.17
21 5 7 5.59 0.29
23 5 7 0.22 0.17
25 5 7 1.09 0.17
27 5 7 2.51 0.19
29 5 7 0.93 0.18
31 5 7 0.14 0.45
-32 6 7 0.23 0.18
-30 6 7 0.11 0.29
-28 6 7 0.2 0.13
-26 6 7 0.01 0.8
-24 6 7 21.33 0.77
-22 6 7 61.6 2.03
-20 6 7 5.35 0.25
-18 6 7 0.25 0.12
-16 6 7 25.52 0.74
-14 6 7 4.4 0.18
-12 6 7 130.95 4.36
-10 6 7 5.89 0.23
-8 6 7 49.4 1.9
-6 6 7 15.18 0.54
-4 6 7 21.66 0.74
-2 6 7 12.56 0.46
0 6 7 39.53 1.68
2 6 7 11.93 0.44
4 6 7 37.01 1.39
6 6 7 0.17 0.1
8 6 7 10.39 0.4
10 6 7 28.45 0.96
12 6 7 11.31 0.44
14 6 7 47.38 1.59
16 6 7 36.74 1.28
18 6 7 1.32 0.14
20 6 7 1.84 0.16
22 6 7 0.28 0.15
24 6 7 0.28 0.15
26 6 7 1.19 0.19
28 6 7 1.67 0.17
30 6 7 0.12 0.16
-33 7 7 0.48 1.27
-31 7 7 0.09 0.17
-29 7 7 0.77 0.14
-27 7 7 1.18 0.15
-25 7 7 0.44 0.14
-23 7 7 3.89 0.22
-21 7 7 1.86 0.16
-19 7 7 1.38 0.14
-17 7 7 31.94 0.97
-15 7 7 40.93 1.13
-13 7 7 6.19 0.23
-11 7 7 10.22 0.35
-9 7 7 46.33 1.6
-7 7 7 8.08 0.33
-5 7 7 5.67 0.24
-3 7 7 0.59 0.45
-1 7 7 5.98 0.25
1 7 7 0.56 0.1
3 7 7 0.54 0.1
5 7 7 0.01 0.72
7 7 7 17.6 0.62
9 7 7 103.63 4.1
11 7 7 99.91 4.26
13 7 7 14.04 0.55
15 7 7 0.5 0.13
17 7 7 0.06 0.15
19 7 7 1.27 0.14
21 7 7 3.54 0.21
23 7 7 0.46 0.22
25 7 7 0.59 0.15
27 7 7 1.63 0.2
29 7 7 0.51 0.16
-32 8 7 0.25 0.28
-28 8 7 0.13 0.17
-26 8 7 0.13 0.21
-24 8 7 13.19 0.55
-22 8 7 36.55 1.25
-20 8 7 3.94 0.2
-18 8 7 0.51 0.11
-16 8 7 15.28 0.53
-14 8 7 2.22 0.13
-12 8 7 72.77 2.42
-10 8 7 4.98 0.22
-8 8 7 22.65 0.74
-6 8 7 8.18 0.32
-4 8 7 12.55 0.47
-2 8 7 7.47 0.31
0 8 7 16.13 0.57
2 8 7 3.31 0.18
4 8 7 20.17 0.7
8 8 7 6.36 0.27
10 8 7 13.61 0.51
12 8 7 5.07 0.26
14 8 7 26.93 0.96
16 8 7 21.77 0.82
18 8 7 1.01 0.14
20 8 7 0.87 0.15
22 8 7 0.15 0.18
24 8 7 0.02 1
26 8 7 0.65 0.16
28 8 7 0.81 0.17
30 8 7 0.02 0.98
-31 9 7 0.35 0.93
-29 9 7 0.36 0.19
-27 9 7 0.72 0.15
-25 9 7 0.24 0.22
-23 9 7 2.04 0.17
-21 9 7 0.76 0.16
-19 9 7 1.05 0.12
-17 9 7 17.19 0.6
-15 9 7 21.52 0.71
-13 9 7 3.48 0.16
-11 9 7 5.02 0.2
-9 9 7 25.03 0.78
-7 9 7 6.75 0.26
-5 9 7 2.03 0.13
-3 9 7 0.23 0.18
-1 9 7 4.09 0.2
1 9 7 0.47 0.1
3 9 7 0.57 0.1
5 9 7 0.12 0.21
7 9 7 10.56 0.41
9 9 7 57.86 2.28
11 9 7 57.21 2.2
13 9 7 10.03 0.43
15 9 7 0.44 0.13
17 9 7 0.04 0.13
19 9 7 0.54 0.13
21 9 7 2 0.2
23 9 7 0.34 0.23
25 9 7 0.32 0.15
27 9 7 0.99 0.16
29 9 7 0.04 1.21
-30 10 7 0.33 1.28
-28 10 7 0.1 0.16
-26 10 7 0.12 0.17
-24 10 7 6.79 0.36
-22 10 7 18.01 0.79
-20 10 7 2.72 0.17
-18 10 7 0.64 0.13
-16 10 7 7.63 0.31
-14 10 7 0.92 0.11
-12 10 7 34.58 1.04
-10 10 7 3.5 0.16
-8 10 7 8.18 0.29
-6 10 7 4.32 0.19
-4 10 7 6.34 0.27
-2 10 7 3.49 0.18
0 10 7 5.68 0.26
2 10 7 0.58 0.11
4 10 7 9.89 0.4
6 10 7 0.21 0.22
8 10 7 3.37 0.19
10 10 7 5.76 0.28
12 10 7 1.83 0.16
14 10 7 13.53 0.57
16 10 7 11.27 0.5
18 10 7 0.69 0.14
20 10 7 0.45 0.14
22 10 7 0.15 0.54
24 10 7 0.23 0.26
26 10 7 0.51 0.18
-27 11 7 0.22 0.15
-25 11 7 0.06 0.15
-23 11 7 0.93 0.14
-21 11 7 0.32 0.11
-19 11 7 0.79 0.12
-17 11 7 7.9 0.33
-15 11 7 9.69 0.38
-13 11 7 1.68 0.12
-11 11 7 2.23 0.13
-9 11 7 11.68 0.4
-7 11 7 4.34 0.19
-5 11 7 0.5 0.08
-3 11 7 0.2 0.18
-1 11 7 2.48 0.16
1 11 7 0.42 0.09
3 11 7 0.43 0.09
5 11 7 0.07 0.12
7 11 7 5.68 0.26
9 11 7 28.78 1.02
11 11 7 29.21 1.05
13 11 7 6.18 0.31
15 11 7 0.39 0.12
17 11 7 0.18 0.21
19 11 7 0.19 0.14
21 11 7 0.94 0.18
23 11 7 0.15 0.16
25 11 7 0.07 0.15
-26 12 7 0.05 0.12
-24 12 7 2.87 0.24
-22 12 7 7.85 0.49
-20 12 7 1.54 0.14
-18 12 7 0.54 0.1
-16 12 7 3.35 0.19
-14 12 7 0.3 0.1
-12 12 7 13.74 0.48
-10 12 7 2.01 0.13
-8 12 7 2.38 0.21
-6 12 7 1.98 0.17
-4 12 7 2.84 0.2
-2 12 7 1.33 0.16
0 12 7 1.52 0.13
2 12 7 0.04 0.1
4 12 7 4.19 0.2
6 12 7 0.13 0.4
8 12 7 1.53 0.14
10 12 7 1.88 0.15
12 12 7 0.55 0.12
14 12 7 5.8 0.29
16 12 7 5.21 0.29
18 12 7 0.47 0.14
20 12 7 0.25 0.21
22 12 7 0.04 0.15
24 12 7 0.04 0.2
-25 13 7 0.27 0.41
-23 13 7 0.34 0.13
-21 13 7 0.35 0.29
-19 13 7 0.39 0.09
-17 13 7 3.13 0.2
-15 13 7 3.68 0.2
-13 13 7 0.73 0.09
-11 13 7 0.98 0.17
-9 13 7 4.81 0.24
-7 13 7 2.29 0.2
-5 13 7 0.16 0.2
-3 13 7 0.28 0.32
-1 13 7 1.29 0.17
1 13 7 0.41 0.18
3 13 7 0.23 0.08
5 13 7 0.02 0.09
7 13 7 2.76 0.17
9 13 7 12.49 0.49
11 13 7 12.82 0.54
13 13 7 3.12 0.19
15 13 7 0.37 0.15
17 13 7 0.07 0.13
19 13 7 0.06 0.14
21 13 7 0.26 0.17
-22 14 7 2.79 0.26
-20 14 7 0.66 0.09
-18 14 7 0.4 0.09
-16 14 7 1.18 0.11
-14 14 7 0.25 0.19
-12 14 7 4.62 0.25
-10 14 7 1 0.14
-8 14 7 0.64 0.14
-6 14 7 0.82 0.17
-4 14 7 1.04 0.16
-2 14 7 0.46 0.15
0 14 7 0.36 0.15
2 14 7 0.09 0.16
4 14 7 1.46 0.12
6 14 7 0.1 0.18
8 14 7 0.63 0.11
10 14 7 0.54 0.1
12 14 7 0.18 0.13
14 14 7 2.16 0.17
16 14 7 1.97 0.16
18 14 7 0.17 0.13
20 14 7 0.06 0.18
-19 15 7 0.28 0.11
-17 15 7 0.91 0.13
-15 15 7 1.34 0.14
-13 15 7 0.33 0.15
-11 15 7 0.34 0.14
-9 15 7 1.7 0.17
-7 15 7 1.01 0.16
-3 15 7 0.1 0.15
-1 15 7 0.55 0.16
1 15 7 0.12 0.14
3 15 7 0.12 0.13
5 15 7 0.08 0.14
7 15 7 1.11 0.11
9 15 7 4.4 0.23
11 15 7 4.66 0.25
13 15 7 1.34 0.13
15 15 7 0.27 0.14
17 15 7 0.06 0.12
-16 16 7 0.64 0.18
-14 16 7 0.07 0.16
-12 16 7 1.3 0.17
-10 16 7 0.39 0.14
-8 16 7 0.32 0.25
-6 16 7 0.29 0.14
-4 16 7 0.37 0.15
-2 16 7 0.16 0.15
2 16 7 0.01 0.85
4 16 7 0.49 0.14
6 16 7 0.14 0.17
8 16 7 0.25 0.1
10 16 7 0.14 0.09
12 16 7 0.09 0.1
14 16 7 0.62 0.12
-13 17 7 0.07 0.16
-11 17 7 0.09 0.13
-9 17 7 0.5 0.15
-7 17 7 0.35 0.14
-5 17 7 0.02 0.94
-3 17 7 0.04 0.14
-1 17 7 0.19 0.16
1 17 7 0.01 0.89
3 17 7 0.05 0.13
5 17 7 0.05 0.13
7 17 7 0.46 0.19
9 17 7 1.2 0.14
11 17 7 1.25 0.14
-6 18 7 0.07 0.12
-4 18 7 0.1 0.12
-2 18 7 0.05 0.12
0 18 7 0.06 0.31
2 18 7 0.23 0.3
4 18 7 0.18 0.19
-34 0 8 2.55 0.39
-32 0 8 0.19 0.25
-30 0 8 0.94 0.22
-28 0 8 2.07 0.25
-24 0 8 7.89 0.43
-22 0 8 15.42 0.72
-20 0 8 4.64 0.29
-18 0 8 10.53 0.51
-16 0 8 47.61 1.84
-14 0 8 21.49 0.87
-12 0 8 0.59 0.18
-10 0 8 6.19 0.41
-8 0 8 72.2 4.27
-6 0 8 41.56 2.13
-4 0 8 4.63 0.3
-2 0 8 98.33 5.24
0 0 8 57.24 3.4
2 0 8 2 0.19
4 0 8 29.67 1.41
6 0 8 5.89 0.37
8 0 8 8.95 0.53
10 0 8 28.53 1.36
12 0 8 3.41 0.27
14 0 8 6.67 0.44
16 0 8 7.7 0.48
18 0 8 0.67 0.18
20 0 8 0.65 1.13
22 0 8 0.07 0.23
24 0 8 9.72 0.65
26 0 8 10.1 0.94
28 0 8 0.75 0.2
30 0 8 0.32 0.29
-33 1 8 2.94 0.25
-31 1 8 0.93 0.16
-29 1 8 2.72 0.2
-27 1 8 0.05 0.19
-25 1 8 0.57 0.13
-23 1 8 35.34 1.06
-21 1 8 17.69 0.57
-19 1 8 60.78 1.7
-17 1 8 29.08 0.82
-15 1 8 15.95 0.49
-13 1 8 5.59 0.23
-11 1 8 42.34 1.37
-9 1 8 6.42 0.29
-7 1 8 150.01 5.43
-5 1 8 254.15 9.74
-3 1 8 0.48 0.11
-1 1 8 0.71 0.1
1 1 8 38.59 1.62
3 1 8 92.02 3.53
5 1 8 164.67 5.92
7 1 8 76.95 3.07
9 1 8 212.14 7.4
11 1 8 19.09 0.68
13 1 8 17.07 0.62
15 1 8 20.33 0.84
17 1 8 0.67 0.12
19 1 8 0.66 0.14
21 1 8 14.29 0.59
23 1 8 0.52 0.14
25 1 8 0.45 0.16
27 1 8 5.15 0.3
31 1 8 3.62 0.34
-34 2 8 2.5 0.4
-32 2 8 0.09 0.15
-30 2 8 0.99 0.19
-28 2 8 1.94 0.19
-26 2 8 0.09 0.18
-24 2 8 7.31 0.32
-22 2 8 14.11 0.46
-20 2 8 4.21 0.19
-18 2 8 9.99 0.34
-16 2 8 43.25 1.2
-14 2 8 19.92 0.58
-12 2 8 0.03 0.13
-10 2 8 5.61 0.26
-8 2 8 65.79 2.74
-6 2 8 38.61 1.3
-4 2 8 5.2 0.25
-2 2 8 88.85 3.4
0 2 8 55.08 2.47
2 2 8 1.82 0.13
4 2 8 28.15 0.93
6 2 8 4.9 0.23
8 2 8 8.83 0.35
10 2 8 26.75 0.97
12 2 8 3.4 0.19
14 2 8 6.09 0.3
16 2 8 7.32 0.33
18 2 8 0.85 0.14
20 2 8 0.37 0.84
22 2 8 0.07 0.14
24 2 8 9.14 0.42
26 2 8 10.29 0.57
28 2 8 0.77 0.15
30 2 8 0.26 0.16
-33 3 8 2.5 0.35
-31 3 8 0.83 0.18
-29 3 8 2.13 0.2
-27 3 8 0.01 0.87
-25 3 8 0.45 0.14
-23 3 8 30.56 0.98
-21 3 8 14.74 0.49
-19 3 8 50.14 1.41
-17 3 8 24.56 0.72
-15 3 8 11.56 0.37
-13 3 8 5.43 0.24
-11 3 8 35.08 1.16
-9 3 8 6.75 0.29
-7 3 8 123.32 4.62
-5 3 8 193.44 6.66
-3 3 8 0.24 0.1
-1 3 8 0.42 0.11
1 3 8 38.46 1.56
3 3 8 68.09 2.75
5 3 8 132.37 4.85
7 3 8 66.48 2.75
9 3 8 178.59 6.37
11 3 8 16.39 0.62
13 3 8 14.15 0.57
15 3 8 16.99 0.65
17 3 8 0.48 0.12
19 3 8 0.6 0.14
21 3 8 11.93 0.51
23 3 8 0.54 0.14
25 3 8 0.43 0.15
27 3 8 4.16 0.27
31 3 8 3.3 0.37
-34 4 8 2.15 0.39
-32 4 8 0.1 0.17
-30 4 8 0.62 0.17
-28 4 8 1.29 0.16
-24 4 8 5.85 0.28
-22 4 8 11.12 0.4
-20 4 8 3.12 0.17
-18 4 8 7.87 0.28
-16 4 8 33.9 0.95
-14 4 8 17.11 0.52
-12 4 8 0.17 0.44
-10 4 8 5.03 0.24
-8 4 8 53.04 2.24
-6 4 8 31.26 1.05
-4 4 8 5.68 0.27
-2 4 8 73.32 2.94
0 4 8 45.35 1.92
2 4 8 1.12 0.12
4 4 8 21.69 0.75
6 4 8 4.24 0.21
8 4 8 8.07 0.34
10 4 8 22.07 0.79
12 4 8 3.37 0.19
14 4 8 4.69 0.24
16 4 8 6.5 0.3
18 4 8 0.78 0.14
22 4 8 0.17 0.16
24 4 8 7.31 0.35
26 4 8 7.92 0.44
28 4 8 0.62 0.16
30 4 8 0.33 0.3
-33 5 8 1.76 0.31
-31 5 8 0.54 0.22
-29 5 8 1.53 0.18
-27 5 8 0.01 0.87
-25 5 8 0.14 0.13
-23 5 8 22.62 0.82
-21 5 8 11.06 0.38
-19 5 8 35.34 1.02
-17 5 8 19.19 0.58
-15 5 8 6.29 0.26
-13 5 8 4.42 0.19
-11 5 8 26.97 0.89
-9 5 8 6.55 0.29
-7 5 8 83.04 3.3
-5 5 8 120.73 4.49
-1 5 8 0.54 0.12
1 5 8 29.29 1.05
3 5 8 40.3 1.66
5 5 8 81.43 3.3
7 5 8 47.44 1.94
9 5 8 125.58 4.78
11 5 8 12.79 0.5
13 5 8 9.48 0.41
15 5 8 11.6 0.47
17 5 8 0.15 0.14
19 5 8 0.7 0.17
21 5 8 8.99 0.41
23 5 8 0.51 0.14
25 5 8 0.53 0.16
27 5 8 2.83 0.23
31 5 8 2.5 0.31
-32 6 8 0.34 0.78
-30 6 8 0.42 0.19
-28 6 8 0.83 0.16
-26 6 8 0.24 0.2
-24 6 8 3.94 0.22
-22 6 8 7.13 0.31
-20 6 8 2.05 0.16
-18 6 8 4.94 0.21
-16 6 8 23.15 0.68
-14 6 8 13.82 0.44
-12 6 8 0.3 0.26
-10 6 8 4.08 0.23
-8 6 8 40.13 1.41
-6 6 8 20.13 0.7
-4 6 8 5.67 0.26
-2 6 8 52.18 2.19
0 6 8 30.93 1.09
2 6 8 0.37 0.11
4 6 8 13.18 0.48
6 6 8 4.2 0.21
8 6 8 6.38 0.29
10 6 8 15.82 0.59
12 6 8 2.92 0.18
14 6 8 3.04 0.19
16 6 8 5.45 0.3
18 6 8 0.85 0.16
22 6 8 0.34 0.18
24 6 8 5.25 0.29
26 6 8 5.19 0.31
28 6 8 0.41 0.19
30 6 8 0.13 0.22
-31 7 8 0.37 0.19
-29 7 8 0.72 0.17
-27 7 8 0.2 0.23
-25 7 8 0.06 0.14
-23 7 8 14.37 0.55
-21 7 8 7.15 0.32
-19 7 8 20.86 0.67
-17 7 8 13.02 0.42
-15 7 8 2.14 0.13
-13 7 8 3.09 0.16
-11 7 8 18.1 0.58
-9 7 8 5.87 0.27
-7 7 8 49.78 1.9
-5 7 8 65.25 2.71
-1 7 8 0.86 0.11
1 7 8 17.89 0.63
3 7 8 19.86 0.7
5 7 8 41.92 1.56
7 7 8 28.91 0.98
9 7 8 75.83 3.13
11 7 8 8.83 0.38
13 7 8 5.79 0.28
15 7 8 6.6 0.31
17 7 8 0.16 0.16
19 7 8 0.64 0.15
21 7 8 5.7 0.3
23 7 8 0.58 0.16
25 7 8 0.42 0.17
27 7 8 1.63 0.19
29 7 8 0.22 0.31
-30 8 8 0.13 0.24
-28 8 8 0.43 0.21
-26 8 8 0.02 0.91
-24 8 8 2.08 0.17
-22 8 8 3.99 0.21
-20 8 8 1.19 0.14
-18 8 8 2.69 0.15
-16 8 8 13.23 0.43
-14 8 8 10.02 0.35
-12 8 8 0.36 0.1
-10 8 8 2.8 0.15
-8 8 8 25.34 0.87
-6 8 8 12.49 0.49
-4 8 8 4.54 0.21
-2 8 8 33.72 1.24
0 8 8 18.19 0.65
2 8 8 0.71 0.59
4 8 8 7.11 0.3
6 8 8 3.46 0.2
8 8 8 4.76 0.23
10 8 8 10.28 0.41
12 8 8 2.28 0.16
14 8 8 1.65 0.15
16 8 8 4.08 0.24
18 8 8 0.59 0.14
20 8 8 0.05 0.28
22 8 8 0.24 0.17
24 8 8 3.29 0.23
26 8 8 2.94 0.3
28 8 8 0.15 0.19
-29 9 8 0.19 0.17
-23 9 8 8.08 0.36
-21 9 8 3.98 0.21
-19 9 8 9.95 0.39
-17 9 8 7.38 0.3
-15 9 8 0.47 0.11
-13 9 8 1.87 0.13
-11 9 8 10.42 0.38
-9 9 8 4.51 0.21
-7 9 8 25.85 0.89
-5 9 8 29.54 1.08
-1 9 8 0.73 0.1
1 9 8 9.71 0.39
3 9 8 8.45 0.35
5 9 8 18.31 0.66
7 9 8 16.04 0.59
9 9 8 42.07 1.45
11 9 8 5.46 0.28
13 9 8 2.92 0.18
15 9 8 3.2 0.2
17 9 8 0.34 0.49
19 9 8 0.51 0.15
21 9 8 3.19 0.21
23 9 8 0.46 0.17
25 9 8 0.31 0.17
27 9 8 0.88 0.16
-28 10 8 0.12 0.18
-26 10 8 0.09 0.17
-24 10 8 1.11 0.13
-22 10 8 1.92 0.15
-20 10 8 0.62 0.12
-18 10 8 1.34 0.13
-16 10 8 6.72 0.28
-14 10 8 5.99 0.24
-12 10 8 0.41 0.1
-10 10 8 1.57 0.12
-8 10 8 14.12 0.49
-6 10 8 6.72 0.3
-4 10 8 2.81 0.16
-2 10 8 18.63 0.68
0 10 8 9.83 0.41
2 10 8 0.23 0.5
4 10 8 3.47 0.2
6 10 8 2.47 0.16
8 10 8 3.12 0.18
10 10 8 5.79 0.28
12 10 8 1.58 0.14
14 10 8 0.89 0.13
16 10 8 2.65 0.19
18 10 8 0.47 0.13
20 10 8 0.12 0.3
22 10 8 0.22 0.17
24 10 8 1.84 0.18
26 10 8 1.31 0.18
-27 11 8 0.1 0.23
-25 11 8 0.01 0.79
-23 11 8 3.83 0.24
-21 11 8 1.86 0.15
-19 11 8 4.02 0.21
-17 11 8 3.7 0.19
-15 11 8 0.15 0.35
-13 11 8 1.05 0.11
-11 11 8 5.25 0.21
-9 11 8 3 0.17
-7 11 8 11.96 0.42
-5 11 8 11.58 0.45
-1 11 8 0.49 0.1
1 11 8 4.54 0.22
3 11 8 2.85 0.17
5 11 8 6.74 0.31
7 11 8 7.81 0.33
9 11 8 19.96 0.77
11 11 8 3.09 0.19
13 11 8 1.27 0.15
15 11 8 1.32 0.14
17 11 8 0.14 0.14
19 11 8 0.47 0.14
21 11 8 1.32 0.18
23 11 8 0.16 0.16
25 11 8 0.15 0.15
-26 12 8 0.06 1.62
-24 12 8 0.64 0.14
-22 12 8 0.68 0.12
-20 12 8 0.31 0.11
-18 12 8 0.52 0.11
-16 12 8 2.94 0.17
-14 12 8 3.05 0.16
-12 12 8 0.36 0.09
-10 12 8 0.85 0.09
-8 12 8 6.75 0.26
-6 12 8 3.13 0.15
-4 12 8 1.54 0.12
-2 12 8 9.04 0.36
0 12 8 4.4 0.22
4 12 8 1.43 0.13
6 12 8 1.42 0.13
8 12 8 1.8 0.15
10 12 8 2.88 0.19
12 12 8 0.93 0.13
14 12 8 0.41 0.13
16 12 8 1.48 0.17
18 12 8 0.33 0.14
20 12 8 0.39 0.45
22 12 8 0.28 0.24
-23 13 8 1.59 0.2
-21 13 8 0.68 0.1
-19 13 8 1.26 0.12
-17 13 8 1.45 0.12
-15 13 8 0.08 0.19
-13 13 8 0.5 0.1
-11 13 8 2.23 0.14
-9 13 8 1.69 0.19
-7 13 8 4.7 0.26
-5 13 8 3.83 0.22
-3 13 8 0.09 0.14
-1 13 8 0.44 0.13
1 13 8 1.7 0.12
3 13 8 0.8 0.11
5 13 8 1.87 0.13
7 13 8 3.27 0.18
9 13 8 8.17 0.37
11 13 8 1.57 0.14
13 13 8 0.46 0.12
15 13 8 0.5 0.12
17 13 8 0.25 0.2
19 13 8 0.14 0.15
21 13 8 0.54 0.15
-22 14 8 0.28 0.15
-20 14 8 0.2 0.14
-18 14 8 0.13 0.09
-16 14 8 1.04 0.11
-14 14 8 1.27 0.11
-12 14 8 0.29 0.15
-10 14 8 0.4 0.13
-8 14 8 2.87 0.22
-6 14 8 1.34 0.17
-4 14 8 0.78 0.18
-2 14 8 3.63 0.25
0 14 8 1.83 0.18
2 14 8 0.11 0.18
4 14 8 0.46 0.09
6 14 8 0.71 0.1
8 14 8 0.78 0.14
10 14 8 1.14 0.12
12 14 8 0.41 0.11
14 14 8 0.14 0.12
16 14 8 0.7 0.14
18 14 8 0.17 0.14
-19 15 8 0.24 0.18
-17 15 8 0.47 0.08
-15 15 8 0.08 0.16
-13 15 8 0.14 0.13
-11 15 8 0.81 0.16
-9 15 8 0.92 0.15
-7 15 8 1.73 0.21
-5 15 8 1.06 0.17
-3 15 8 0.11 0.18
-1 15 8 0.37 0.18
1 15 8 0.63 0.13
3 15 8 0.23 0.13
5 15 8 0.36 0.08
7 15 8 1.19 0.13
9 15 8 2.77 0.2
11 15 8 0.61 0.11
13 15 8 0.19 0.11
15 15 8 0.2 0.16
-16 16 8 0.51 0.27
-14 16 8 0.55 0.15
-12 16 8 0.16 0.14
-10 16 8 0.27 0.22
-8 16 8 0.97 0.16
-6 16 8 0.52 0.16
-4 16 8 0.25 0.16
-2 16 8 1.31 0.17
0 16 8 0.54 0.15
2 16 8 0.16 0.23
4 16 8 0.21 0.14
6 16 8 0.22 0.08
8 16 8 0.35 0.11
10 16 8 0.4 0.1
12 16 8 0.11 0.12
-11 17 8 0.35 0.19
-9 17 8 0.33 0.18
-7 17 8 0.54 0.14
-5 17 8 0.34 0.15
-3 17 8 0.18 0.67
-1 17 8 0.09 0.16
1 17 8 0.16 0.14
3 17 8 0.04 0.14
5 17 8 0.13 0.17
7 17 8 0.31 0.17
-32 0 9 6.77 0.83
-28 0 9 3.78 0.46
-26 0 9 8.14 0.47
-24 0 9 7.72 0.44
-22 0 9 19.08 0.87
-20 0 9 5.14 0.31
-18 0 9 12.8 0.61
-16 0 9 1.76 0.18
-14 0 9 32.81 1.42
-12 0 9 195.79 10.27
-10 0 9 65.36 3.88
-8 0 9 22.32 1.12
-6 0 9 86.51 4.85
-4 0 9 34 1.57
-2 0 9 365.61 19.11
0 0 9 1.01 0.19
2 0 9 156.65 7.98
4 0 9 14.65 0.76
6 0 9 5.83 0.38
8 0 9 34.51 1.67
10 0 9 5.14 0.36
12 0 9 32.63 1.56
14 0 9 0.1 0.21
16 0 9 0.51 0.19
18 0 9 0.3 0.21
20 0 9 25.39 1.38
22 0 9 8.21 0.57
24 0 9 8.33 0.58
26 0 9 4.56 0.39
30 0 9 0.96 0.29
-31 1 9 0.17 0.16
-27 1 9 0.31 0.5
-25 1 9 0.15 0.15
-21 1 9 2.26 0.15
-19 1 9 20.76 0.64
-17 1 9 9.63 0.33
-15 1 9 14.39 0.46
-13 1 9 69.13 2.75
-11 1 9 19.85 0.71
-9 1 9 10.33 0.41
-7 1 9 33.67 1.12
-5 1 9 22.9 0.8
-3 1 9 78.1 3.27
-1 1 9 170.35 6.08
1 1 9 77.84 3.17
3 1 9 3.07 0.17
5 1 9 0.3 0.13
7 1 9 3.43 0.19
9 1 9 0.45 0.11
11 1 9 2.99 0.18
13 1 9 12.82 0.52
15 1 9 2.05 0.16
17 1 9 22.5 0.87
19 1 9 52.64 2.72
21 1 9 21.99 0.95
23 1 9 5.14 0.28
25 1 9 2.88 0.21
29 1 9 2.08 0.19
-34 2 9 1.74 0.36
-32 2 9 6.42 0.61
-28 2 9 3.41 0.24
-26 2 9 7.39 0.32
-24 2 9 7.16 0.29
-22 2 9 17.6 0.59
-20 2 9 4.59 0.21
-18 2 9 11.79 0.39
-16 2 9 1.71 0.12
-14 2 9 30.75 0.96
-12 2 9 178.34 6.65
-10 2 9 60.42 2.35
-8 2 9 20.87 0.73
-6 2 9 77.33 3.17
-4 2 9 27.55 0.93
-2 2 9 312.27 13.67
0 2 9 1.11 0.12
2 2 9 139.95 5.24
4 2 9 12.78 0.49
6 2 9 4.59 0.23
8 2 9 29.73 1
10 2 9 4.6 0.23
12 2 9 29.31 1.03
14 2 9 0.1 0.14
16 2 9 0.47 0.14
18 2 9 0.54 0.24
20 2 9 22.76 0.97
22 2 9 7.26 0.36
24 2 9 7.6 0.38
26 2 9 4.43 0.26
28 2 9 0.05 1.81
30 2 9 0.99 0.22
-33 3 9 0.38 0.3
-31 3 9 0.17 0.17
-29 3 9 0.04 0.19
-27 3 9 0.05 0.17
-25 3 9 0.16 0.14
-23 3 9 0.23 0.16
-21 3 9 1.91 0.15
-19 3 9 17.38 0.56
-17 3 9 7.5 0.28
-15 3 9 12.59 0.41
-13 3 9 58.66 2.26
-11 3 9 16 0.61
-9 3 9 9.65 0.39
-7 3 9 29.18 1
-5 3 9 22.58 0.78
-3 3 9 65.51 2.74
-1 3 9 140.32 5.2
1 3 9 67.36 2.81
3 3 9 2.15 0.16
5 3 9 0.01 0.8
7 3 9 2.62 0.16
9 3 9 0.58 0.12
11 3 9 2.13 0.17
13 3 9 11 0.45
15 3 9 1.4 0.15
17 3 9 19.89 0.78
19 3 9 46.84 1.92
21 3 9 18.9 0.78
23 3 9 4.58 0.26
25 3 9 2.59 0.21
27 3 9 0.05 0.19
29 3 9 1.97 0.25
-32 4 9 4.84 0.53
-30 4 9 0.04 0.17
-28 4 9 2.55 0.22
-26 4 9 5.55 0.29
-24 4 9 5.55 0.26
-22 4 9 12.78 0.46
-20 4 9 3.47 0.18
-18 4 9 9.34 0.34
-16 4 9 1.82 0.13
-14 4 9 25.05 0.79
-12 4 9 134.46 5.26
-10 4 9 47.53 1.66
-8 4 9 17.34 0.64
-6 4 9 59.45 2.46
-4 4 9 18.32 0.65
-2 4 9 234.99 8.56
0 4 9 0.59 0.13
2 4 9 111.82 4.36
4 4 9 9.71 0.41
6 4 9 2.68 0.16
8 4 9 20.29 0.73
10 4 9 3.46 0.19
12 4 9 21.43 0.78
14 4 9 0.22 0.17
16 4 9 0.26 0.14
18 4 9 0.37 0.26
20 4 9 18.21 0.76
22 4 9 5.61 0.31
24 4 9 6.2 0.33
26 4 9 3.52 0.24
28 4 9 0.19 0.26
30 4 9 0.82 0.23
-31 5 9 0.49 0.41
-29 5 9 0.11 0.18
-27 5 9 0.22 0.25
-25 5 9 0.08 0.14
-23 5 9 0.19 0.18
-21 5 9 1.25 0.13
-19 5 9 12.37 0.42
-17 5 9 5.32 0.21
-15 5 9 10.49 0.36
-13 5 9 45.48 1.35
-11 5 9 10.51 0.43
-9 5 9 8.3 0.35
-7 5 9 22.52 0.79
-5 5 9 19.24 0.69
-3 5 9 51.94 2.18
-1 5 9 104.53 4.04
1 5 9 47.85 1.93
3 5 9 1.38 0.15
5 5 9 0.01 0.76
7 5 9 1.5 0.13
9 5 9 0.58 0.12
11 5 9 1.08 0.17
13 5 9 7.6 0.35
15 5 9 0.68 0.13
17 5 9 15.35 0.62
19 5 9 34.36 1.35
21 5 9 14 0.63
23 5 9 3.55 0.23
25 5 9 1.97 0.22
27 5 9 0.17 0.26
29 5 9 1.38 0.27
-32 6 9 3.37 0.49
-30 6 9 0.01 0.93
-28 6 9 1.62 0.19
-26 6 9 3.54 0.21
-24 6 9 3.81 0.22
-22 6 9 7.78 0.33
-20 6 9 2.1 0.14
-18 6 9 6.22 0.25
-16 6 9 1.98 0.13
-14 6 9 17.78 0.57
-12 6 9 84.94 3.36
-10 6 9 30.62 1.04
-8 6 9 13.14 0.49
-6 6 9 39.99 1.5
-4 6 9 10.67 0.42
-2 6 9 139.65 5.23
0 6 9 0.2 0.14
2 6 9 70.37 2.87
4 6 9 6.11 0.27
6 6 9 1.16 0.13
8 6 9 10.65 0.42
10 6 9 2.13 0.17
12 6 9 13.28 0.52
14 6 9 0.09 0.14
16 6 9 0.1 0.15
18 6 9 0.46 0.16
20 6 9 12.3 0.57
22 6 9 3.66 0.25
24 6 9 4.25 0.26
26 6 9 2.57 0.23
28 6 9 0.72 0.62
-31 7 9 0.2 0.37
-29 7 9 0.38 0.43
-27 7 9 0.1 0.52
-25 7 9 0.1 0.16
-23 7 9 0.05 0.17
-21 7 9 0.74 0.15
-19 7 9 7.2 0.27
-17 7 9 3.13 0.16
-15 7 9 7.6 0.27
-13 7 9 30.72 0.98
-11 7 9 5.71 0.26
-9 7 9 6.6 0.29
-7 7 9 15.55 0.57
-5 7 9 14.4 0.54
-3 7 9 36.91 1.33
-1 7 9 63.93 2.67
1 7 9 29.33 1.04
3 7 9 0.81 0.13
7 7 9 0.78 0.13
9 7 9 0.54 0.14
11 7 9 0.49 0.14
13 7 9 4.25 0.23
15 7 9 0.31 0.13
17 7 9 10.63 0.46
19 7 9 21.61 0.95
21 7 9 8.87 0.42
23 7 9 2.29 0.19
25 7 9 1.16 0.17
27 7 9 0.55 0.76
-30 8 9 0.13 0.34
-28 8 9 0.68 0.18
-26 8 9 1.81 0.19
-24 8 9 2.3 0.18
-22 8 9 3.64 0.2
-20 8 9 0.98 0.13
-18 8 9 3.56 0.18
-16 8 9 1.75 0.13
-14 8 9 11.08 0.37
-12 8 9 46.12 1.41
-10 8 9 17.68 0.67
-8 8 9 8.67 0.36
-6 8 9 22.85 0.82
-4 8 9 4.9 0.24
-2 8 9 70.07 2.97
0 8 9 0.39 0.39
2 8 9 38.34 1.39
4 8 9 3.51 0.2
6 8 9 0.43 0.12
8 8 9 4.59 0.26
10 8 9 1.28 0.15
12 8 9 6.91 0.32
14 8 9 0.13 0.24
16 8 9 0.16 0.17
18 8 9 0.4 0.14
20 8 9 7.34 0.4
22 8 9 1.89 0.19
24 8 9 2.52 0.2
26 8 9 1.7 0.23
-27 9 9 0.01 0.77
-25 9 9 0.14 0.13
-23 9 9 0.14 0.19
-21 9 9 0.37 0.14
-19 9 9 3.34 0.21
-17 9 9 1.43 0.12
-15 9 9 4.8 0.2
-13 9 9 17.91 0.58
-11 9 9 2.66 0.16
-9 9 9 4.5 0.23
-7 9 9 9.76 0.4
-5 9 9 9.67 0.39
-3 9 9 22.68 0.81
-1 9 9 34.84 1.25
1 9 9 15.52 0.59
3 9 9 0.56 0.12
7 9 9 0.4 0.12
9 9 9 0.61 0.13
11 9 9 0.2 0.18
13 9 9 2.16 0.17
15 9 9 0.01 0.77
17 9 9 6.58 0.33
19 9 9 12.13 0.72
21 9 9 4.7 0.28
23 9 9 1.39 0.18
25 9 9 0.72 0.15
-28 10 9 0.43 0.2
-26 10 9 0.71 0.16
-24 10 9 1.14 0.14
-22 10 9 1.42 0.18
-20 10 9 0.38 0.11
-18 10 9 1.69 0.14
-16 10 9 1.37 0.12
-14 10 9 6.09 0.25
-12 10 9 21.16 0.71
-10 10 9 8.85 0.34
-8 10 9 5.16 0.25
-6 10 9 10.98 0.43
-4 10 9 1.82 0.15
-2 10 9 29.78 1.09
0 10 9 0.13 0.4
2 10 9 18.48 0.72
4 10 9 1.81 0.15
6 10 9 0.1 0.12
8 10 9 1.32 0.15
10 10 9 0.58 0.12
12 10 9 2.86 0.2
14 10 9 0.32 0.53
16 10 9 0.13 0.25
18 10 9 0.4 0.16
20 10 9 3.57 0.28
22 10 9 0.81 0.17
24 10 9 1.38 0.17
-25 11 9 0.14 0.15
-23 11 9 0.34 0.25
-21 11 9 0.13 0.13
-19 11 9 1.38 0.13
-17 11 9 0.55 0.12
-15 11 9 2.55 0.15
-13 11 9 8.93 0.32
-11 11 9 1.14 0.1
-9 11 9 2.65 0.14
-7 11 9 5.21 0.27
-5 11 9 5.63 0.26
-3 11 9 12.08 0.47
-1 11 9 16.73 0.62
1 11 9 7.33 0.32
3 11 9 0.31 0.1
5 11 9 0.11 0.14
7 11 9 0.14 0.12
9 11 9 0.49 0.12
11 11 9 0.03 1.04
13 11 9 0.87 0.14
15 11 9 0.11 0.27
17 11 9 3.55 0.22
19 11 9 5.37 0.35
21 11 9 2.1 0.22
23 11 9 0.79 0.19
-24 12 9 0.67 0.15
-22 12 9 0.39 0.11
-20 12 9 0.2 0.22
-18 12 9 0.72 0.12
-16 12 9 0.83 0.12
-14 12 9 2.82 0.15
-12 12 9 8.18 0.31
-10 12 9 3.87 0.18
-8 12 9 2.73 0.14
-6 12 9 4.82 0.23
-4 12 9 0.56 0.1
-2 12 9 10.52 0.43
0 12 9 0.26 0.34
2 12 9 7.45 0.32
4 12 9 0.77 0.12
6 12 9 0.1 0.18
8 12 9 0.34 0.12
10 12 9 0.34 0.15
12 12 9 0.96 0.14
14 12 9 0.28 0.43
16 12 9 0.08 0.18
18 12 9 0.34 0.17
20 12 9 1.53 0.18
22 12 9 0.33 0.14
-23 13 9 0.05 0.24
-21 13 9 0.06 0.16
-19 13 9 0.45 0.11
-17 13 9 0.25 0.11
-15 13 9 1.17 0.11
-13 13 9 3.78 0.19
-11 13 9 0.35 0.08
-9 13 9 1.36 0.11
-7 13 9 2.41 0.13
-5 13 9 2.75 0.14
-3 13 9 5.35 0.26
-1 13 9 6.8 0.31
1 13 9 2.89 0.17
3 13 9 0.15 0.1
5 13 9 0.11 0.15
7 13 9 0.25 0.25
9 13 9 0.36 0.13
11 13 9 0.09 0.2
13 13 9 0.33 0.15
15 13 9 0.07 0.23
17 13 9 1.56 0.17
19 13 9 2.04 0.22
-20 14 9 0.13 0.28
-18 14 9 0.22 0.1
-16 14 9 0.42 0.09
-14 14 9 1.11 0.11
-12 14 9 2.75 0.17
-10 14 9 1.54 0.16
-8 14 9 1.25 0.19
-6 14 9 1.86 0.2
-4 14 9 0.14 0.15
-2 14 9 3.15 0.23
0 14 9 0.45 0.32
2 14 9 2.4 0.16
4 14 9 0.33 0.09
6 14 9 0.29 0.42
8 14 9 0.17 0.54
10 14 9 0.08 0.13
12 14 9 0.3 0.11
14 14 9 0.06 0.15
16 14 9 0.12 0.18
-17 15 9 0.36 0.3
-15 15 9 0.44 0.11
-13 15 9 1.36 0.18
-11 15 9 0.15 0.12
-9 15 9 0.7 0.15
-7 15 9 1.11 0.18
-5 15 9 1.18 0.19
-3 15 9 1.98 0.18
-1 15 9 2.43 0.2
1 15 9 0.97 0.16
3 15 9 0.08 0.11
5 15 9 0.12 0.16
7 15 9 0.07 0.14
9 15 9 0.11 0.14
11 15 9 0.04 0.13
13 15 9 0.1 0.13
-12 16 9 0.93 0.19
-10 16 9 0.41 0.19
-8 16 9 0.7 0.16
-6 16 9 0.57 0.18
-4 16 9 0.11 0.17
-2 16 9 0.6 0.19
0 16 9 0.09 0.22
2 16 9 0.73 0.17
4 16 9 0.18 0.18
6 16 9 0.1 0.15
8 16 9 0.12 0.17
10 16 9 0.17 0.22
-7 17 9 0.39 0.23
-5 17 9 0.44 0.16
-3 17 9 0.73 0.18
-1 17 9 0.66 0.2
1 17 9 0.34 0.18
3 17 9 0.1 0.24
-32 0 10 0.54 0.36
-30 0 10 0.01 1.17
-28 0 10 3.17 0.3
-26 0 10 21.09 1.18
-24 0 10 35.1 1.63
-22 0 10 14.42 0.68
-20 0 10 0.64 0.17
-18 0 10 5.73 0.35
-16 0 10 0.76 0.17
-14 0 10 6.85 0.46
-12 0 10 24.23 1.21
-10 0 10 1.63 0.23
-8 0 10 108.71 6.11
-6 0 10 114.66 6.33
-4 0 10 53.72 2.94
-2 0 10 75.75 4.39
0 0 10 83.18 4.75
2 0 10 23.03 1.14
4 0 10 2.49 0.23
6 0 10 70.73 4.13
8 0 10 103.51 6.07
10 0 10 9.54 0.56
12 0 10 14.82 0.79
14 0 10 13.81 0.77
16 0 10 13.53 0.81
18 0 10 25.61 1.36
20 0 10 3.96 0.33
22 0 10 6.85 0.5
24 0 10 9.21 0.76
26 0 10 1.66 0.26
28 0 10 0.13 0.33
-33 1 10 2.34 0.41
-31 1 10 5.4 0.48
-29 1 10 1.78 0.19
-27 1 10 8.77 0.39
-25 1 10 0.68 0.14
-23 1 10 5.81 0.26
-21 1 10 10.26 0.37
-19 1 10 8.42 0.34
-17 1 10 18.8 0.59
-15 1 10 8.5 0.34
-13 1 10 50.09 1.67
-11 1 10 0.4 0.28
-9 1 10 247.16 8.79
-7 1 10 91.57 3.71
-5 1 10 24.34 0.84
-3 1 10 0.52 0.13
-1 1 10 0.92 0.13
1 1 10 52.73 2.19
3 1 10 1.2 0.13
5 1 10 100.52 3.97
7 1 10 85.7 3.55
9 1 10 69.95 2.97
11 1 10 54.24 1.95
13 1 10 3.65 0.21
15 1 10 27.95 1.02
17 1 10 1.16 0.15
19 1 10 2.11 0.17
21 1 10 2.36 0.2
23 1 10 0.73 0.16
25 1 10 6.83 0.38
27 1 10 1.29 0.19
29 1 10 0.74 0.2
-32 2 10 0.25 0.36
-30 2 10 0.05 0.19
-28 2 10 2.74 0.2
-26 2 10 19.78 0.82
-24 2 10 32.94 1.1
-22 2 10 13.2 0.46
-20 2 10 0.68 0.13
-18 2 10 5.11 0.22
-16 2 10 0.65 0.12
-14 2 10 6.41 0.3
-12 2 10 21.72 0.8
-10 2 10 1.76 0.16
-8 2 10 101 4.07
-6 2 10 106.21 4.2
-4 2 10 50.53 1.97
-2 2 10 67.99 2.84
0 2 10 75.39 3.07
2 2 10 21.02 0.79
4 2 10 2.11 0.16
6 2 10 64.8 2.97
8 2 10 96.53 4.07
10 2 10 8.59 0.4
12 2 10 13.76 0.56
14 2 10 12.25 0.5
16 2 10 12.4 0.52
18 2 10 23.62 0.91
20 2 10 3.64 0.23
22 2 10 6.1 0.32
24 2 10 8.63 0.48
26 2 10 1.53 0.18
28 2 10 0.01 0.96
-31 3 10 4.45 0.4
-29 3 10 1.33 0.18
-27 3 10 7.26 0.33
-25 3 10 0.66 0.15
-23 3 10 4.87 0.22
-21 3 10 8.68 0.33
-19 3 10 6.5 0.27
-17 3 10 15.42 0.51
-15 3 10 7.44 0.31
-13 3 10 40.43 1.37
-11 3 10 0.2 0.15
-9 3 10 196.45 7.82
-7 3 10 74.59 3.17
-5 3 10 19.64 0.72
-3 3 10 0.44 0.12
-1 3 10 1.07 0.12
1 3 10 40.35 1.41
3 3 10 0.61 0.14
5 3 10 84.53 3.46
7 3 10 72.97 3.1
9 3 10 60.71 2.4
11 3 10 45.5 1.6
13 3 10 3.34 0.21
15 3 10 22.64 0.87
17 3 10 0.87 0.17
19 3 10 1.85 0.17
21 3 10 1.93 0.17
23 3 10 0.74 0.16
25 3 10 5.77 0.34
27 3 10 1.18 0.22
29 3 10 0.55 0.36
-32 4 10 0.18 0.29
-30 4 10 0.03 1.43
-28 4 10 2.29 0.22
-26 4 10 16.02 0.68
-24 4 10 26.18 1
-22 4 10 10.38 0.37
-20 4 10 0.48 0.14
-18 4 10 3.81 0.19
-16 4 10 0.49 0.11
-14 4 10 4.93 0.23
-12 4 10 15.84 0.6
-10 4 10 1.91 0.16
-8 4 10 78.07 3.33
-6 4 10 81.76 3.39
-4 4 10 40.47 1.39
-2 4 10 50.51 2
0 4 10 56.49 2.44
2 4 10 17.3 0.65
4 4 10 1.44 0.13
6 4 10 51.73 1.87
8 4 10 71.49 3.23
10 4 10 6.13 0.31
12 4 10 10.25 0.42
14 4 10 9.07 0.39
16 4 10 9.61 0.46
18 4 10 18.37 0.75
20 4 10 2.8 0.2
22 4 10 4.68 0.27
24 4 10 6.41 0.36
26 4 10 1.34 0.17
28 4 10 0.23 0.27
-31 5 10 2.98 0.39
-29 5 10 1 0.19
-27 5 10 5.13 0.31
-25 5 10 0.75 0.14
-23 5 10 3.33 0.19
-21 5 10 6.14 0.26
-19 5 10 3.98 0.19
-17 5 10 10.34 0.36
-15 5 10 5.76 0.24
-13 5 10 29.06 1.04
-11 5 10 0.09 0.14
-9 5 10 138.14 5.43
-7 5 10 49.59 1.83
-5 5 10 13.64 0.52
-3 5 10 0.08 0.2
-1 5 10 1.23 0.13
1 5 10 23.6 0.83
3 5 10 0.4 0.14
5 5 10 59.85 2.49
7 5 10 55.16 2.12
9 5 10 44.91 1.55
11 5 10 30.74 1.12
13 5 10 2.5 0.17
15 5 10 16.02 0.64
17 5 10 0.65 0.14
19 5 10 1.37 0.16
21 5 10 1.19 0.17
23 5 10 0.44 0.17
25 5 10 4.44 0.33
27 5 10 0.93 0.19
-30 6 10 0.02 1.19
-28 6 10 1.85 0.22
-26 6 10 11.2 0.59
-24 6 10 19.04 0.83
-22 6 10 6.9 0.28
-20 6 10 0.46 0.12
-18 6 10 2.42 0.15
-16 6 10 0.1 0.14
-14 6 10 3.16 0.18
-12 6 10 9.46 0.39
-10 6 10 1.9 0.17
-8 6 10 54.44 2.01
-6 6 10 56.13 2.24
-4 6 10 27.93 0.97
-2 6 10 33.28 1.15
0 6 10 36.34 1.25
2 6 10 12.6 0.48
4 6 10 0.72 0.14
6 6 10 35.06 1.23
8 6 10 48.58 1.74
10 6 10 3.69 0.23
12 6 10 6.34 0.31
14 6 10 5.73 0.31
16 6 10 6.41 0.32
18 6 10 12.29 0.57
20 6 10 1.85 0.18
22 6 10 2.91 0.2
24 6 10 4.2 0.28
26 6 10 0.97 0.17
28 6 10 0.73 0.67
-29 7 10 0.47 0.23
-27 7 10 3.31 0.29
-25 7 10 0.61 0.16
-23 7 10 2 0.16
-21 7 10 3.52 0.18
-19 7 10 1.94 0.14
-17 7 10 5.69 0.24
-15 7 10 3.74 0.18
-13 7 10 17.45 0.6
-11 7 10 0.12 0.15
-9 7 10 79.83 3.42
-7 7 10 28.96 1.04
-5 7 10 8.1 0.35
-3 7 10 0.21 0.12
-1 7 10 1.17 0.13
1 7 10 10.47 0.43
3 7 10 0.01 0.75
5 7 10 37.48 1.32
7 7 10 36.98 1.3
9 7 10 28.73 1.04
11 7 10 17.84 0.73
13 7 10 1.64 0.15
15 7 10 9.25 0.41
17 7 10 0.45 0.14
19 7 10 1.01 0.16
21 7 10 0.49 0.15
23 7 10 0.45 0.19
25 7 10 2.58 0.31
27 7 10 0.7 0.18
-28 8 10 1.39 0.24
-26 8 10 6.8 0.48
-24 8 10 11.48 0.62
-22 8 10 3.91 0.2
-20 8 10 0.38 0.11
-18 8 10 1.34 0.15
-16 8 10 0.04 0.11
-14 8 10 1.8 0.14
-12 8 10 4.65 0.22
-10 8 10 1.63 0.16
-8 8 10 32.29 1.14
-6 8 10 32.49 1.15
-4 8 10 17 0.64
-2 8 10 18.27 0.67
0 8 10 20.3 0.74
2 8 10 8.57 0.36
4 8 10 0.37 0.12
6 8 10 20.37 0.78
8 8 10 26.98 1.04
10 8 10 1.82 0.21
12 8 10 3.28 0.21
14 8 10 2.94 0.2
16 8 10 3.74 0.24
18 8 10 6.77 0.35
20 8 10 0.94 0.19
22 8 10 1.53 0.19
24 8 10 2.37 0.23
26 8 10 0.59 0.17
-27 9 10 1.72 0.24
-25 9 10 0.47 0.18
-23 9 10 1.01 0.14
-21 9 10 1.89 0.16
-19 9 10 0.54 0.11
-17 9 10 2.63 0.16
-15 9 10 2.19 0.15
-13 9 10 8.56 0.34
-11 9 10 0.11 0.13
-9 9 10 38.68 1.39
-7 9 10 13.99 0.56
-5 9 10 3.74 0.21
-3 9 10 0.13 0.12
-1 9 10 0.95 0.12
1 9 10 3.51 0.21
3 9 10 0.16 0.13
5 9 10 20.87 0.79
7 9 10 21.75 0.82
9 9 10 16.24 0.64
11 9 10 8.65 0.4
13 9 10 0.95 0.14
15 9 10 4.68 0.28
17 9 10 0.26 0.17
19 9 10 0.59 0.15
21 9 10 0.37 0.21
23 9 10 0.38 0.2
25 9 10 1.62 0.25
-26 10 10 3.75 0.35
-24 10 10 5.77 0.38
-22 10 10 1.85 0.15
-20 10 10 0.19 0.13
-18 10 10 0.57 0.12
-16 10 10 0.08 0.11
-14 10 10 0.83 0.11
-12 10 10 1.82 0.13
-10 10 10 1.31 0.12
-8 10 10 16.42 0.64
-6 10 10 16.62 0.63
-4 10 10 8.96 0.37
-2 10 10 8.71 0.37
0 10 10 9.79 0.41
2 10 10 5.19 0.27
4 10 10 0.13 0.21
6 10 10 10.29 0.44
8 10 10 13.3 0.58
10 10 10 0.75 0.15
12 10 10 1.58 0.16
14 10 10 1.39 0.16
16 10 10 1.91 0.17
18 10 10 3.28 0.24
20 10 10 0.55 0.17
22 10 10 0.69 0.18
24 10 10 1.23 0.32
-25 11 10 0.36 0.17
-23 11 10 0.5 0.14
-21 11 10 0.8 0.13
-19 11 10 0.14 0.17
-17 11 10 0.98 0.12
-15 11 10 1.12 0.11
-13 11 10 3.8 0.18
-11 11 10 0.05 0.11
-9 11 10 15.82 0.58
-7 11 10 5.56 0.27
-5 11 10 1.38 0.12
-3 11 10 0.02 0.9
-1 11 10 0.58 0.11
1 11 10 0.76 0.11
3 11 10 0.31 0.13
5 11 10 10.01 0.43
7 11 10 11.08 0.48
9 11 10 8.08 0.4
11 11 10 3.58 0.22
13 11 10 0.53 0.14
15 11 10 1.9 0.18
17 11 10 0.32 0.22
19 11 10 0.36 0.18
21 11 10 0.15 0.19
-22 12 10 0.91 0.15
-20 12 10 0.11 0.12
-18 12 10 0.37 0.14
-16 12 10 0.09 0.11
-14 12 10 0.27 0.09
-12 12 10 0.57 0.1
-10 12 10 0.75 0.1
-8 12 10 7.36 0.3
-6 12 10 7.35 0.32
-4 12 10 4.02 0.22
-2 12 10 3.64 0.2
0 12 10 4.05 0.21
2 12 10 2.57 0.18
4 12 10 0.15 0.19
6 12 10 4.38 0.24
8 12 10 5.22 0.28
10 12 10 0.35 0.14
12 12 10 0.54 0.13
14 12 10 0.54 0.14
16 12 10 0.73 0.15
18 12 10 1.43 0.18
20 12 10 0.21 0.15
-21 13 10 0.33 0.17
-19 13 10 0.21 0.15
-17 13 10 0.27 0.11
-15 13 10 0.44 0.1
-13 13 10 1.29 0.11
-11 13 10 0.12 0.11
-9 13 10 5.23 0.24
-7 13 10 1.78 0.13
-5 13 10 0.36 0.09
-3 13 10 0.11 0.13
-1 13 10 0.37 0.1
1 13 10 0.25 0.14
3 13 10 0.27 0.11
5 13 10 3.95 0.23
7 13 10 4.91 0.28
9 13 10 3.35 0.21
11 13 10 1.2 0.14
13 13 10 0.25 0.12
15 13 10 0.69 0.14
17 13 10 0.18 0.2
-18 14 10 0.19 0.21
-16 14 10 0.03 0.09
-14 14 10 0.21 0.12
-12 14 10 0.19 0.09
-10 14 10 0.36 0.07
-8 14 10 2.75 0.19
-6 14 10 2.57 0.16
-4 14 10 1.41 0.12
-2 14 10 1.21 0.12
0 14 10 1.39 0.12
2 14 10 1 0.12
4 14 10 0.12 0.12
6 14 10 1.58 0.16
8 14 10 1.74 0.15
10 14 10 0.24 0.18
12 14 10 0.17 0.12
14 14 10 0.31 0.16
-15 15 10 0.38 0.4
-13 15 10 0.36 0.16
-11 15 10 0.07 0.22
-9 15 10 1.63 0.19
-7 15 10 0.66 0.17
-5 15 10 0.23 0.17
-3 15 10 0.08 0.14
-1 15 10 0.5 0.28
1 15 10 0.15 0.2
3 15 10 0.28 0.2
5 15 10 1.16 0.16
7 15 10 1.53 0.16
9 15 10 1.04 0.12
11 15 10 0.36 0.14
-10 16 10 0.18 0.26
-8 16 10 1.13 0.22
-6 16 10 0.98 0.2
-4 16 10 0.65 0.19
-2 16 10 0.43 0.18
0 16 10 0.33 0.2
2 16 10 0.41 0.16
4 16 10 0.01 0.8
6 16 10 0.51 0.2
-30 0 11 1.37 0.39
-28 0 11 12.53 0.88
-26 0 11 4.69 0.34
-24 0 11 0.43 0.74
-20 0 11 5.28 0.32
-18 0 11 1.79 0.2
-16 0 11 76.54 3.97
-14 0 11 98.94 6.46
-12 0 11 1.38 0.21
-10 0 11 5.98 0.39
-8 0 11 19.42 1.05
-6 0 11 52.51 2.69
-4 0 11 95.92 5.52
-2 0 11 2.37 0.23
0 0 11 50.82 2.54
2 0 11 84.59 4.88
4 0 11 147.23 8.27
6 0 11 32.29 1.59
8 0 11 2.81 0.26
10 0 11 3.03 0.27
12 0 11 3.22 0.29
14 0 11 22.7 1.23
16 0 11 14.19 0.84
18 0 11 0.54 0.21
20 0 11 0.41 0.25
22 0 11 0.98 0.23
24 0 11 1.55 0.25
26 0 11 2.63 0.35
-31 1 11 3.67 0.35
-29 1 11 7.82 0.41
-27 1 11 4.44 0.25
-25 1 11 1.62 0.16
-23 1 11 2.59 0.17
-21 1 11 0.52 0.12
-19 1 11 34.39 1.09
-17 1 11 27.55 0.83
-15 1 11 0.78 0.15
-13 1 11 0.46 0.14
-11 1 11 7.21 0.33
-9 1 11 5.7 0.28
-7 1 11 61.87 2.43
-5 1 11 57.02 2.11
-3 1 11 17.86 0.67
-1 1 11 7.77 0.34
1 1 11 109.76 4.46
3 1 11 83.37 3.65
5 1 11 16.88 0.68
7 1 11 18.54 0.71
9 1 11 4.39 0.24
11 1 11 22.51 0.82
13 1 11 17.73 0.7
15 1 11 7.98 0.37
17 1 11 25.33 1.04
19 1 11 10.45 0.49
21 1 11 3.58 0.24
23 1 11 0.09 0.15
25 1 11 1.18 0.16
27 1 11 0.35 0.41
-30 2 11 0.49 0.3
-28 2 11 11.33 0.57
-26 2 11 4.49 0.25
-24 2 11 0.6 0.49
-22 2 11 0.26 0.3
-20 2 11 4.65 0.21
-18 2 11 1.68 0.13
-16 2 11 70.33 2.23
-14 2 11 90.46 3.71
-12 2 11 1.32 0.15
-10 2 11 5.62 0.28
-8 2 11 17.4 0.65
-6 2 11 46.41 1.56
-4 2 11 86.29 3.65
-2 2 11 2.26 0.16
0 2 11 47.55 1.61
2 2 11 75.37 3.29
4 2 11 134.19 5.46
6 2 11 28.88 1.01
8 2 11 2.38 0.17
10 2 11 2.71 0.18
12 2 11 2.92 0.19
14 2 11 20.03 0.8
16 2 11 12.92 0.54
18 2 11 0.52 0.15
20 2 11 0.4 0.17
22 2 11 0.92 0.17
24 2 11 1.43 0.17
26 2 11 2.57 0.3
-31 3 11 3.48 0.47
-29 3 11 6.44 0.59
-27 3 11 3.79 0.23
-25 3 11 1.36 0.16
-23 3 11 2.35 0.17
-21 3 11 0.49 0.12
-19 3 11 29.14 0.92
-17 3 11 23.2 0.74
-15 3 11 0.74 0.15
-13 3 11 0.56 0.14
-11 3 11 5.92 0.31
-9 3 11 4.42 0.25
-7 3 11 50.97 1.77
-5 3 11 48.52 1.71
-3 3 11 15.12 0.57
-1 3 11 6.22 0.29
1 3 11 90.7 3.71
3 3 11 69.61 3
5 3 11 14.92 0.57
7 3 11 16.9 0.64
9 3 11 4.1 0.22
11 3 11 18.44 0.71
13 3 11 14.09 0.6
15 3 11 6.78 0.33
17 3 11 21.75 0.91
19 3 11 8.84 0.42
21 3 11 2.99 0.22
23 3 11 0.18 0.16
25 3 11 1.05 0.17
27 3 11 0.17 0.25
-30 4 11 0.55 0.31
-28 4 11 9.31 0.55
-26 4 11 3.87 0.25
-24 4 11 0.51 0.56
-20 4 11 3.26 0.18
-18 4 11 1.15 0.13
-16 4 11 54.64 1.68
-14 4 11 69.41 2.49
-12 4 11 0.99 0.16
-10 4 11 4.21 0.23
-8 4 11 13.51 0.53
-6 4 11 33.15 1.16
-4 4 11 63.91 2.65
-2 4 11 1.77 0.15
0 4 11 38.53 1.33
2 4 11 61.2 2.49
4 4 11 103.77 4.29
6 4 11 22.58 0.83
8 4 11 1.58 0.15
10 4 11 2.23 0.18
12 4 11 2.22 0.17
14 4 11 15.35 0.63
16 4 11 10.31 0.45
18 4 11 0.27 0.14
20 4 11 0.2 0.15
22 4 11 0.72 0.15
24 4 11 0.99 0.17
26 4 11 1.97 0.34
-29 5 11 5.22 0.64
-27 5 11 2.95 0.2
-25 5 11 1.08 0.15
-23 5 11 1.83 0.16
-21 5 11 0.39 0.12
-19 5 11 20.88 0.67
-17 5 11 16.26 0.53
-15 5 11 0.67 0.15
-13 5 11 0.5 0.14
-11 5 11 4.52 0.24
-9 5 11 2.82 0.18
-7 5 11 34.59 1.19
-5 5 11 36.87 1.3
-3 5 11 11.86 0.47
-1 5 11 4.47 0.23
1 5 11 64.27 2.74
3 5 11 48.77 1.78
5 5 11 11.76 0.47
7 5 11 14.21 0.55
9 5 11 3.36 0.23
11 5 11 12.28 0.51
13 5 11 9.58 0.44
15 5 11 4.99 0.28
17 5 11 15.25 0.66
19 5 11 6.67 0.36
21 5 11 2.07 0.18
23 5 11 0.14 0.16
25 5 11 0.75 0.16
27 5 11 1.12 1.07
-28 6 11 6.41 0.51
-26 6 11 3.03 0.22
-24 6 11 0.24 0.21
-22 6 11 0.11 0.21
-20 6 11 1.92 0.15
-18 6 11 0.64 0.12
-16 6 11 36 1.13
-14 6 11 45.83 1.52
-12 6 11 0.79 0.14
-10 6 11 2.56 0.17
-8 6 11 9.12 0.39
-6 6 11 18.55 0.7
-4 6 11 38.89 1.32
-2 6 11 1.15 0.14
0 6 11 27.44 0.97
2 6 11 43.28 1.54
4 6 11 67.42 2.87
6 6 11 14.79 0.57
8 6 11 0.69 0.13
10 6 11 1.55 0.16
12 6 11 1.54 0.16
14 6 11 9.67 0.46
16 6 11 6.63 0.35
18 6 11 0.2 0.18
20 6 11 0.19 0.18
22 6 11 0.51 0.16
24 6 11 0.69 0.17
26 6 11 1.31 0.24
-29 7 11 3.65 0.53
-27 7 11 1.68 0.24
-25 7 11 1.01 0.16
-23 7 11 1.12 0.15
-21 7 11 0.24 0.12
-19 7 11 12.66 0.49
-17 7 11 9.66 0.36
-15 7 11 0.47 0.15
-13 7 11 0.43 0.12
-11 7 11 2.89 0.19
-9 7 11 1.34 0.15
-7 7 11 20.02 0.74
-5 7 11 23.56 0.88
-3 7 11 8.38 0.37
-1 7 11 2.76 0.18
1 7 11 39.18 1.42
3 7 11 28.78 1.09
5 7 11 8.34 0.39
7 7 11 10.35 0.45
9 7 11 2.62 0.19
11 7 11 6.61 0.32
13 7 11 5.24 0.28
15 7 11 3.03 0.22
17 7 11 9.14 0.44
19 7 11 4.25 0.27
21 7 11 1.33 0.16
23 7 11 0.14 0.16
25 7 11 0.25 0.17
-28 8 11 3.6 0.51
-26 8 11 2.37 0.28
-24 8 11 0.21 0.19
-22 8 11 0.06 0.16
-20 8 11 0.86 0.13
-18 8 11 0.44 0.14
-16 8 11 19.76 0.66
-14 8 11 25.46 0.88
-12 8 11 0.51 0.13
-10 8 11 1.45 0.17
-8 8 11 5.29 0.28
-6 8 11 8.37 0.39
-4 8 11 19.66 0.77
-2 8 11 0.54 0.14
0 8 11 17.3 0.66
2 8 11 26.82 1
4 8 11 37.67 1.4
6 8 11 8.15 0.38
8 8 11 0.39 0.15
10 8 11 0.99 0.14
12 8 11 0.88 0.14
14 8 11 5.1 0.27
16 8 11 3.83 0.23
18 8 11 0.21 0.2
20 8 11 0.14 0.17
22 8 11 0.32 0.18
24 8 11 0.49 0.18
-25 9 11 0.35 0.21
-23 9 11 0.7 0.18
-21 9 11 0.22 0.28
-19 9 11 6.66 0.32
-17 9 11 4.93 0.23
-15 9 11 0.44 0.14
-13 9 11 0.32 0.11
-11 9 11 1.62 0.16
-9 9 11 0.6 0.13
-7 9 11 9.72 0.42
-5 9 11 13.19 0.54
-3 9 11 4.96 0.26
-1 9 11 1.43 0.14
1 9 11 20.05 0.77
3 9 11 15.03 0.64
5 9 11 5.16 0.28
7 9 11 7.01 0.34
9 9 11 1.77 0.16
11 9 11 2.84 0.19
13 9 11 2.47 0.19
15 9 11 1.65 0.17
17 9 11 4.81 0.29
19 9 11 2.31 0.2
21 9 11 0.59 0.19
23 9 11 0.37 0.27
-24 10 11 0.2 0.21
-22 10 11 0.04 0.14
-20 10 11 0.34 0.15
-18 10 11 0.16 0.11
-16 10 11 9.34 0.42
-14 10 11 11.41 0.46
-12 10 11 0.31 0.11
-10 10 11 0.65 0.13
-8 10 11 2.56 0.17
-6 10 11 2.89 0.18
-4 10 11 7.98 0.38
-2 10 11 0.52 0.14
0 10 11 9.85 0.44
2 10 11 14.61 0.59
4 10 11 17.85 0.73
6 10 11 3.98 0.27
8 10 11 0.11 0.13
10 10 11 0.54 0.13
12 10 11 0.47 0.13
14 10 11 2.4 0.19
16 10 11 2.02 0.18
18 10 11 0.09 0.2
20 10 11 0.08 0.16
22 10 11 0.23 0.18
-23 11 11 0.47 0.18
-21 11 11 0.13 0.17
-19 11 11 2.88 0.18
-17 11 11 2.1 0.14
-15 11 11 0.28 0.13
-13 11 11 0.26 0.11
-11 11 11 0.72 0.1
-9 11 11 0.24 0.14
-7 11 11 3.89 0.21
-5 11 11 6.26 0.3
-3 11 11 2.47 0.17
-1 11 11 0.67 0.14
1 11 11 8.93 0.4
3 11 11 6.42 0.33
5 11 11 2.81 0.18
7 11 11 3.93 0.24
9 11 11 1.06 0.16
11 11 11 1.1 0.15
13 11 11 0.85 0.17
15 11 11 0.79 0.15
17 11 11 1.99 0.2
19 11 11 1.14 0.21
-20 12 11 0.17 0.13
-18 12 11 0.32 0.16
-16 12 11 3.79 0.23
-14 12 11 4.43 0.22
-12 12 11 0.23 0.12
-10 12 11 0.28 0.1
-8 12 11 1.02 0.14
-6 12 11 0.75 0.14
-4 12 11 2.63 0.17
-2 12 11 0.32 0.12
0 12 11 4.56 0.27
2 12 11 6.94 0.34
4 12 11 7.55 0.38
6 12 11 1.6 0.19
8 12 11 0.09 0.14
10 12 11 0.36 0.14
12 12 11 0.35 0.14
14 12 11 0.87 0.17
16 12 11 0.95 0.16
18 12 11 0.34 0.3
-19 13 11 1.14 0.16
-17 13 11 0.74 0.12
-15 13 11 0.15 0.1
-13 13 11 0.15 0.09
-11 13 11 0.35 0.09
-9 13 11 0.3 0.31
-7 13 11 1.36 0.14
-5 13 11 2.48 0.17
-3 13 11 1 0.11
-1 13 11 0.29 0.1
1 13 11 3.31 0.22
3 13 11 2.38 0.17
5 13 11 1.34 0.16
7 13 11 1.9 0.17
9 13 11 0.67 0.15
11 13 11 0.29 0.14
13 13 11 0.29 0.15
15 13 11 0.38 0.16
-16 14 11 1.32 0.16
-14 14 11 1.38 0.15
-12 14 11 0.11 0.13
-10 14 11 0.14 0.08
-8 14 11 0.4 0.09
-6 14 11 0.23 0.13
-4 14 11 0.65 0.1
-2 14 11 0.16 0.11
0 14 11 1.93 0.16
2 14 11 2.67 0.18
4 14 11 2.58 0.17
6 14 11 0.56 0.12
8 14 11 0.02 0.13
10 14 11 0.14 0.11
12 14 11 0.11 0.13
-11 15 11 0.22 0.18
-9 15 11 0.26 0.17
-7 15 11 0.3 0.1
-5 15 11 0.63 0.13
-3 15 11 0.32 0.09
-1 15 11 0.07 0.08
1 15 11 0.9 0.11
3 15 11 0.74 0.11
5 15 11 0.52 0.11
7 15 11 0.73 0.12
9 15 11 0.36 0.24
-30 0 12 1.35 0.35
-28 0 12 0.73 0.23
-26 0 12 2.13 0.3
-24 0 12 4.98 0.34
-22 0 12 0.44 0.4
-20 0 12 4.08 0.28
-18 0 12 46.54 2
-16 0 12 31.06 1.6
-14 0 12 0.62 0.21
-12 0 12 0.85 0.94
-10 0 12 3.39 0.33
-8 0 12 3.26 0.28
-6 0 12 8.83 0.55
-4 0 12 21.14 1.09
-2 0 12 6.67 0.42
0 0 12 36.21 1.79
2 0 12 45.29 2.24
4 0 12 4.85 0.35
6 0 12 31.85 1.58
8 0 12 2.97 0.27
10 0 12 30.8 1.72
12 0 12 14.31 0.84
14 0 12 12.88 0.76
16 0 12 5.45 0.41
18 0 12 1.1 0.26
20 0 12 2.16 0.26
22 0 12 0.78 0.26
24 0 12 1.2 0.25
26 0 12 0.01 1.14
-29 1 12 0.13 2.45
-27 1 12 0.18 0.17
-25 1 12 1.83 0.18
-23 1 12 4.67 0.23
-21 1 12 23.02 0.88
-19 1 12 3.1 0.18
-17 1 12 7.05 0.3
-15 1 12 32.98 1.25
-13 1 12 3.46 0.21
-11 1 12 100.48 4.68
-9 1 12 35.7 1.28
-7 1 12 1.58 0.16
-5 1 12 0.17 0.14
-3 1 12 15.25 0.59
-1 1 12 14.58 0.56
1 1 12 0.73 0.16
3 1 12 4.42 0.24
5 1 12 16.57 0.64
7 1 12 7.67 0.35
9 1 12 20.76 0.81
11 1 12 0.25 0.14
13 1 12 5.15 0.29
15 1 12 32.96 1.38
17 1 12 10.86 0.63
19 1 12 0.41 0.15
21 1 12 0.09 0.17
23 1 12 1.74 0.2
25 1 12 0.78 0.22
-30 2 12 1.21 0.35
-28 2 12 0.83 0.23
-26 2 12 1.84 0.2
-24 2 12 4.42 0.22
-22 2 12 0.22 0.13
-20 2 12 3.88 0.21
-18 2 12 43.42 1.43
-16 2 12 29.05 1.11
-14 2 12 0.71 0.16
-12 2 12 0.27 0.21
-10 2 12 3.06 0.2
-8 2 12 2.87 0.19
-6 2 12 7.95 0.36
-4 2 12 18.57 0.69
-2 2 12 6.32 0.3
0 2 12 33.27 1.14
2 2 12 42.44 1.46
4 2 12 4.15 0.23
6 2 12 29.09 1.04
8 2 12 2.69 0.18
10 2 12 27.42 1.04
12 2 12 13.22 0.55
14 2 12 11.59 0.52
16 2 12 4.83 0.28
18 2 12 0.82 0.15
20 2 12 1.79 0.17
22 2 12 0.75 0.18
24 2 12 1.14 0.18
-29 3 12 0.52 0.63
-27 3 12 0.1 0.16
-25 3 12 1.39 0.15
-23 3 12 4.05 0.22
-21 3 12 19.45 0.79
-19 3 12 2.68 0.17
-17 3 12 5.9 0.27
-15 3 12 27.95 1.04
-13 3 12 2.72 0.19
-11 3 12 85.03 3.75
-9 3 12 30.91 1.1
-7 3 12 1.12 0.16
-5 3 12 0.09 0.17
-3 3 12 11.7 0.48
-1 3 12 11.67 0.48
1 3 12 0.61 0.13
3 3 12 3.76 0.23
5 3 12 14.05 0.57
7 3 12 5.88 0.29
9 3 12 17.08 0.68
11 3 12 0.29 0.14
13 3 12 4.48 0.25
15 3 12 29 1.3
17 3 12 9.64 0.49
19 3 12 0.39 0.17
21 3 12 0.14 0.19
23 3 12 1.4 0.17
25 3 12 0.48 0.23
-28 4 12 0.6 0.2
-26 4 12 1.44 0.2
-24 4 12 3.35 0.2
-22 4 12 0.29 0.13
-20 4 12 3.24 0.18
-18 4 12 34.28 1.2
-16 4 12 24.25 0.87
-14 4 12 0.93 0.15
-12 4 12 0.26 0.36
-10 4 12 2.48 0.18
-8 4 12 2.08 0.17
-6 4 12 5.8 0.29
-4 4 12 13.32 0.53
-2 4 12 5.04 0.25
0 4 12 27.6 0.98
2 4 12 34.65 1.22
4 4 12 2.75 0.19
6 4 12 20.62 0.79
8 4 12 2.22 0.17
10 4 12 21.56 0.82
12 4 12 10.68 0.47
14 4 12 8.84 0.42
16 4 12 3.67 0.23
18 4 12 0.49 0.16
20 4 12 1.12 0.17
22 4 12 0.58 0.17
24 4 12 0.97 0.23
-29 5 12 0.36 1.25
-27 5 12 0.14 0.19
-25 5 12 0.66 0.15
-23 5 12 2.95 0.19
-21 5 12 13.91 0.61
-19 5 12 2.02 0.15
-17 5 12 4.21 0.21
-15 5 12 19.8 0.72
-13 5 12 1.51 0.16
-11 5 12 59.44 2.1
-9 5 12 22.65 0.85
-7 5 12 0.7 0.16
-5 5 12 0.07 0.12
-3 5 12 7.31 0.33
-1 5 12 7.41 0.33
1 5 12 1.66 0.5
3 5 12 2.95 0.19
5 5 12 10.12 0.44
7 5 12 3.84 0.22
9 5 12 11.98 0.53
11 5 12 0.31 0.14
13 5 12 3.61 0.22
15 5 12 21.41 0.98
17 5 12 8.13 0.41
19 5 12 0.32 0.15
21 5 12 0.03 1
23 5 12 1.12 0.17
25 5 12 0.36 0.23
-28 6 12 0.55 0.39
-26 6 12 0.85 0.19
-24 6 12 2.26 0.19
-22 6 12 0.07 0.14
-20 6 12 2.42 0.17
-18 6 12 24.23 0.96
-16 6 12 18.18 0.65
-14 6 12 1.06 0.16
-12 6 12 0.41 0.55
-10 6 12 1.73 0.16
-8 6 12 1.25 0.15
-6 6 12 3.48 0.21
-4 6 12 7.57 0.35
-2 6 12 3.37 0.21
0 6 12 20.49 0.77
2 6 12 24.49 0.9
4 6 12 1.25 0.15
6 6 12 12.04 0.48
8 6 12 1.63 0.15
10 6 12 14.32 0.58
12 6 12 7.36 0.35
14 6 12 5.9 0.32
16 6 12 2.17 0.18
18 6 12 0.42 0.14
20 6 12 0.73 0.16
22 6 12 0.41 0.17
24 6 12 0.63 0.2
-27 7 12 0.12 2.61
-25 7 12 0.32 0.19
-23 7 12 1.81 0.17
-21 7 12 7.79 0.45
-19 7 12 1.35 0.14
-17 7 12 2.58 0.16
-15 7 12 11.59 0.44
-13 7 12 0.64 0.15
-11 7 12 35.2 1.32
-9 7 12 14.26 0.57
-7 7 12 0.53 0.13
-3 7 12 3.65 0.22
-1 7 12 3.49 0.21
1 7 12 0.46 0.16
3 7 12 1.88 0.17
5 7 12 6.28 0.31
7 7 12 2 0.17
9 7 12 7.28 0.36
11 7 12 0.27 0.14
13 7 12 2.5 0.18
15 7 12 14 0.86
17 7 12 5.75 0.35
19 7 12 0.32 0.16
21 7 12 0.16 0.21
23 7 12 0.72 0.17
-26 8 12 0.64 0.27
-24 8 12 0.78 0.18
-22 8 12 0.09 0.15
-20 8 12 1.66 0.18
-18 8 12 14.05 0.67
-16 8 12 11.5 0.47
-14 8 12 1.05 0.14
-10 8 12 0.94 0.15
-8 8 12 0.55 0.14
-6 8 12 1.75 0.15
-4 8 12 3.44 0.21
-2 8 12 1.95 0.17
0 8 12 13.27 0.55
2 8 12 15.35 0.63
4 8 12 0.47 0.13
6 8 12 5.81 0.29
8 8 12 1.14 0.14
10 8 12 8.36 0.42
12 8 12 4.44 0.27
14 8 12 3.08 0.21
16 8 12 1.13 0.16
18 8 12 0.37 0.2
20 8 12 0.36 0.17
22 8 12 0.21 0.16
-25 9 12 0.02 1.44
-23 9 12 1.07 0.18
-21 9 12 4.04 0.24
-19 9 12 0.73 0.13
-17 9 12 1.34 0.14
-15 9 12 5.78 0.27
-13 9 12 0.36 0.13
-11 9 12 17.38 0.69
-9 9 12 7.69 0.36
-7 9 12 0.31 0.13
-3 9 12 1.44 0.15
-1 9 12 1.39 0.15
1 9 12 0.16 0.13
3 9 12 1.17 0.15
5 9 12 3.5 0.22
7 9 12 0.84 0.14
9 9 12 3.75 0.24
11 9 12 0.26 0.14
13 9 12 1.61 0.17
15 9 12 7.99 0.48
17 9 12 3.61 0.25
19 9 12 0.21 0.16
21 9 12 0.04 0.17
-22 10 12 0.07 0.14
-20 10 12 1.08 0.16
-18 10 12 7.5 0.41
-16 10 12 6.42 0.31
-14 10 12 0.83 0.14
-12 10 12 0.3 0.47
-10 10 12 0.44 0.13
-8 10 12 0.3 0.12
-6 10 12 0.69 0.13
-4 10 12 1.34 0.14
-2 10 12 1.02 0.15
0 10 12 7.49 0.36
2 10 12 8.56 0.41
4 10 12 0.57 0.48
6 10 12 2.15 0.19
8 10 12 0.65 0.13
10 10 12 4.11 0.26
12 10 12 2.3 0.18
14 10 12 1.5 0.21
16 10 12 0.54 0.2
18 10 12 0.18 0.16
20 10 12 0.1 0.24
-21 11 12 1.83 0.2
-19 11 12 0.44 0.12
-17 11 12 0.66 0.11
-15 11 12 2.31 0.16
-13 11 12 0.05 0.13
-11 11 12 7.29 0.34
-9 11 12 3.41 0.22
-7 11 12 0.28 0.28
-5 11 12 0.02 0.96
-3 11 12 0.51 0.13
-1 11 12 0.51 0.13
1 11 12 0.19 0.14
3 11 12 0.65 0.14
5 11 12 1.6 0.16
7 11 12 0.35 0.13
9 11 12 1.52 0.15
11 11 12 0.36 0.23
13 11 12 0.91 0.14
15 11 12 3.43 0.3
17 11 12 1.99 0.2
-18 12 12 3.11 0.24
-16 12 12 2.98 0.2
-14 12 12 0.52 0.1
-12 12 12 0.4 0.4
-10 12 12 0.23 0.11
-8 12 12 0.05 0.14
-6 12 12 0.3 0.13
-4 12 12 0.44 0.11
-2 12 12 0.48 0.13
0 12 12 3.62 0.23
2 12 12 3.93 0.24
4 12 12 0.24 0.4
6 12 12 0.61 0.13
8 12 12 0.53 0.15
10 12 12 1.77 0.17
12 12 12 1.17 0.18
14 12 12 0.63 0.15
16 12 12 0.15 0.24
-15 13 12 0.8 0.12
-13 13 12 0.06 0.11
-11 13 12 2.25 0.18
-9 13 12 1.29 0.13
-5 13 12 0.13 0.2
-3 13 12 0.12 0.11
-1 13 12 0.19 0.12
1 13 12 0.22 0.23
3 13 12 0.23 0.12
5 13 12 0.64 0.13
7 13 12 0.17 0.14
9 13 12 0.57 0.14
11 13 12 0.17 0.15
13 13 12 0.43 0.19
-12 14 12 0.17 0.26
-10 14 12 0.08 0.09
-8 14 12 0.03 0.08
-6 14 12 0.09 0.1
-4 14 12 0.15 0.12
-2 14 12 0.24 0.11
0 14 12 1.57 0.15
2 14 12 1.38 0.14
4 14 12 0.1 0.11
6 14 12 0.17 0.13
8 14 12 0.3 0.15
-5 15 12 0.06 0.24
-3 15 12 0.05 0.23
-1 15 12 0.15 0.1
1 15 12 0.17 0.24
3 15 12 0.08 0.25
-28 0 13 0.39 0.29
-24 0 13 0.19 0.26
-22 0 13 10.12 0.66
-20 0 13 1.57 0.21
-18 0 13 22.92 1.12
-16 0 13 20.47 1.11
-14 0 13 2.38 0.29
-12 0 13 7.36 0.49
-10 0 13 5.94 0.41
-8 0 13 2.34 0.27
-6 0 13 18.04 0.97
-4 0 13 10.01 0.64
-2 0 13 0.28 0.19
0 0 13 5.96 0.41
2 0 13 7.34 0.53
4 0 13 11.55 0.71
6 0 13 9.44 0.59
8 0 13 13.15 0.81
10 0 13 24.26 1.38
12 0 13 9.2 0.59
14 0 13 6.35 0.49
16 0 13 1 0.23
18 0 13 0.77 0.87
20 0 13 0.41 0.22
22 0 13 0.21 0.32
24 0 13 0.21 0.29
-29 1 13 1.49 0.34
-27 1 13 1.31 0.23
-25 1 13 2.86 0.21
-23 1 13 6.73 0.35
-21 1 13 1.61 0.16
-19 1 13 4.76 0.22
-17 1 13 8.19 0.39
-15 1 13 0.24 0.16
-13 1 13 0.42 0.16
-11 1 13 0.58 0.14
-9 1 13 2.72 0.19
-7 1 13 0.48 0.15
-5 1 13 16.39 0.67
-3 1 13 6.48 0.31
-1 1 13 67.74 2.68
1 1 13 4.62 0.26
3 1 13 7.64 0.35
5 1 13 1.43 0.16
7 1 13 3.93 0.23
9 1 13 11.7 0.52
11 1 13 0.18 0.15
13 1 13 4.99 0.27
15 1 13 4.08 0.24
17 1 13 7.38 0.38
19 1 13 3.1 0.26
21 1 13 0.8 0.17
23 1 13 0.4 0.24
-28 2 13 0.2 0.22
-26 2 13 0.04 0.23
-24 2 13 0.04 0.14
-22 2 13 9.33 0.46
-20 2 13 1.53 0.14
-18 2 13 20.96 0.76
-16 2 13 19.21 0.76
-14 2 13 2.24 0.18
-12 2 13 6.63 0.32
-10 2 13 5.75 0.29
-8 2 13 2.49 0.18
-6 2 13 17.12 0.69
-4 2 13 9.36 0.43
-2 2 13 0.16 0.14
0 2 13 5.42 0.31
2 2 13 6.31 0.32
4 2 13 10.97 0.46
6 2 13 8.66 0.4
8 2 13 12.19 0.53
10 2 13 22.91 1.02
12 2 13 8.55 0.42
14 2 13 5.7 0.3
16 2 13 0.91 0.18
18 2 13 0.17 0.17
20 2 13 0.41 0.23
22 2 13 0.16 0.17
24 2 13 0.63 0.98
-27 3 13 1.23 0.32
-25 3 13 2.28 0.21
-23 3 13 5.74 0.32
-21 3 13 1.53 0.14
-19 3 13 4.31 0.22
-17 3 13 7.08 0.32
-15 3 13 0.3 0.16
-13 3 13 0.39 0.15
-11 3 13 0.49 0.14
-9 3 13 2.39 0.18
-7 3 13 0.45 0.14
-5 3 13 13.6 0.54
-3 3 13 5.03 0.28
-1 3 13 55.1 2.03
1 3 13 3.71 0.23
3 3 13 6.27 0.31
5 3 13 1.15 0.17
7 3 13 3.12 0.2
9 3 13 9.48 0.41
11 3 13 0.42 0.29
13 3 13 4.08 0.24
15 3 13 3.53 0.23
17 3 13 6.27 0.36
19 3 13 2.46 0.28
21 3 13 0.61 0.17
23 3 13 0.19 0.23
-28 4 13 0.07 0.21
-26 4 13 0.02 0.96
-24 4 13 0.08 0.22
-22 4 13 7.26 0.38
-20 4 13 1.24 0.13
-18 4 13 15.69 0.64
-16 4 13 15.23 0.66
-14 4 13 1.67 0.17
-12 4 13 5.01 0.28
-10 4 13 5.16 0.28
-8 4 13 2.73 0.2
-6 4 13 14.48 0.59
-4 4 13 7.72 0.41
-2 4 13 0.19 0.14
0 4 13 3.74 0.22
2 4 13 4.45 0.26
4 4 13 8.59 0.38
6 4 13 6.96 0.34
8 4 13 9.63 0.43
10 4 13 19.56 0.91
12 4 13 7.9 0.38
14 4 13 4.75 0.28
16 4 13 0.67 0.15
18 4 13 0.09 0.15
20 4 13 0.07 0.2
22 4 13 0.2 0.19
-27 5 13 1.08 0.24
-25 5 13 1.66 0.2
-23 5 13 4.47 0.3
-21 5 13 1.44 0.15
-19 5 13 3.35 0.2
-17 5 13 5.19 0.25
-15 5 13 0.26 0.14
-13 5 13 0.28 0.17
-11 5 13 0.08 0.16
-9 5 13 1.93 0.19
-7 5 13 0.46 0.16
-5 5 13 9.82 0.43
-3 5 13 3.51 0.22
-1 5 13 37.97 1.42
1 5 13 2.52 0.18
3 5 13 4.04 0.23
5 5 13 0.89 0.16
7 5 13 2.06 0.18
9 5 13 6.13 0.32
11 5 13 0.22 0.14
13 5 13 2.74 0.19
15 5 13 2.58 0.19
17 5 13 4.62 0.3
19 5 13 1.64 0.19
21 5 13 0.45 0.17
23 5 13 0.17 0.28
-24 6 13 0.12 0.24
-22 6 13 4.68 0.26
-20 6 13 0.94 0.13
-18 6 13 10.27 0.48
-16 6 13 10.33 0.43
-14 6 13 1.04 0.15
-12 6 13 3.35 0.24
-10 6 13 4.22 0.25
-8 6 13 2.84 0.19
-6 6 13 10.62 0.47
-4 6 13 5.45 0.28
-2 6 13 0.05 0.15
0 6 13 2.2 0.18
2 6 13 2.33 0.18
4 6 13 5.76 0.33
6 6 13 4.69 0.25
8 6 13 6.57 0.32
10 6 13 14.55 0.62
12 6 13 6.23 0.32
14 6 13 3.37 0.22
16 6 13 0.61 0.17
18 6 13 0.42 0.36
20 6 13 0.03 0.98
22 6 13 0.4 0.67
-25 7 13 0.8 0.27
-23 7 13 3.16 0.28
-21 7 13 1.19 0.15
-19 7 13 2.4 0.19
-17 7 13 3.18 0.18
-15 7 13 0.26 0.15
-13 7 13 0.05 0.14
-9 7 13 1.55 0.15
-7 7 13 0.37 0.14
-5 7 13 6.13 0.31
-3 7 13 2.02 0.16
-1 7 13 21.67 0.86
1 7 13 1.47 0.17
3 7 13 2.3 0.2
5 7 13 0.52 0.13
7 7 13 1.15 0.16
9 7 13 3.32 0.21
11 7 13 0.13 0.13
13 7 13 1.63 0.17
15 7 13 1.61 0.18
17 7 13 2.92 0.21
19 7 13 0.93 0.19
21 7 13 0.43 0.27
-24 8 13 0.21 0.32
-22 8 13 2.54 0.24
-20 8 13 0.62 0.13
-18 8 13 5.21 0.28
-16 8 13 5.82 0.28
-14 8 13 0.6 0.13
-12 8 13 1.82 0.16
-10 8 13 2.93 0.21
-8 8 13 2.54 0.2
-6 8 13 6.84 0.33
-4 8 13 3.38 0.21
-2 8 13 0.34 0.58
0 8 13 1.04 0.14
2 8 13 0.9 0.14
4 8 13 3.45 0.23
6 8 13 2.61 0.2
8 8 13 3.96 0.25
10 8 13 10.01 0.51
12 8 13 4.32 0.26
14 8 13 2.18 0.21
16 8 13 0.4 0.16
18 8 13 0.09 0.16
20 8 13 0.03 0.19
-23 9 13 1.83 0.23
-21 9 13 0.85 0.18
-19 9 13 1.52 0.14
-17 9 13 1.8 0.15
-15 9 13 0.17 0.13
-13 9 13 0.31 0.46
-11 9 13 0.11 0.24
-9 9 13 0.71 0.16
-7 9 13 0.55 0.39
-5 9 13 3.17 0.21
-3 9 13 1 0.15
-1 9 13 10.68 0.49
1 9 13 0.66 0.13
3 9 13 1.09 0.15
5 9 13 0.35 0.14
7 9 13 0.48 0.14
9 9 13 1.44 0.16
11 9 13 0.41 0.34
13 9 13 0.64 0.15
15 9 13 0.99 0.17
17 9 13 1.48 0.22
19 9 13 0.53 0.17
-20 10 13 0.4 0.15
-18 10 13 2.24 0.17
-16 10 13 2.72 0.2
-14 10 13 0.36 0.13
-12 10 13 0.82 0.14
-10 10 13 1.97 0.19
-8 10 13 1.9 0.16
-6 10 13 3.83 0.22
-4 10 13 2 0.18
-2 10 13 0.1 0.16
0 10 13 0.42 0.13
2 10 13 0.37 0.15
4 10 13 1.66 0.17
6 10 13 1.34 0.16
8 10 13 2.11 0.2
10 10 13 5.66 0.32
12 10 13 2.64 0.21
14 10 13 1.04 0.16
16 10 13 0.33 0.22
-19 11 13 0.81 0.15
-17 11 13 0.84 0.13
-15 11 13 0.13 0.13
-11 11 13 0.09 0.15
-9 11 13 0.41 0.15
-7 11 13 0.15 0.15
-5 11 13 1.43 0.15
-3 11 13 0.43 0.13
-1 11 13 4.31 0.26
1 11 13 0.31 0.12
3 11 13 0.45 0.13
5 11 13 0.28 0.18
7 11 13 0.23 0.14
9 11 13 0.58 0.14
11 11 13 0.35 0.41
13 11 13 0.33 0.18
15 11 13 0.44 0.19
-16 12 13 1.16 0.14
-14 12 13 0.51 0.43
-12 12 13 0.33 0.12
-10 12 13 1 0.15
-8 12 13 1.19 0.15
-6 12 13 1.9 0.15
-4 12 13 0.87 0.12
-2 12 13 0.35 0.4
0 12 13 0.12 0.12
2 12 13 0.12 0.13
4 12 13 0.73 0.14
6 12 13 0.54 0.13
8 12 13 1.02 0.17
10 12 13 2.64 0.2
12 12 13 1.45 0.18
-13 13 13 0.01 1.09
-11 13 13 0.18 0.36
-9 13 13 0.25 0.13
-7 13 13 0.08 0.14
-5 13 13 0.51 0.11
-3 13 13 0.15 0.11
-1 13 13 1.46 0.17
1 13 13 0.07 0.14
3 13 13 0.17 0.14
5 13 13 0.05 0.11
7 13 13 0.06 0.13
9 13 13 0.28 0.16
-6 14 13 0.68 0.1
-4 14 13 0.25 0.11
-2 14 13 0.12 0.11
0 14 13 0.12 0.14
2 14 13 0.05 0.16
4 14 13 0.43 0.34
-26 0 14 0.24 0.31
-24 0 14 1.44 0.24
-22 0 14 0.27 0.24
-20 0 14 0.08 0.27
-18 0 14 0.52 0.19
-16 0 14 0.82 0.24
-14 0 14 0.88 0.22
-12 0 14 2.69 0.28
-10 0 14 5.03 0.39
-8 0 14 74.1 3.81
-6 0 14 29.07 1.56
-4 0 14 0.14 0.75
-2 0 14 3.91 0.34
0 0 14 2.1 0.26
2 0 14 6.81 0.46
4 0 14 0.68 0.2
6 0 14 7.45 0.51
8 0 14 8.58 0.55
10 0 14 13.17 0.85
12 0 14 8.66 0.59
14 0 14 1.82 0.26
16 0 14 5.9 0.48
18 0 14 0.28 0.22
20 0 14 2.32 0.48
22 0 14 0.47 0.29
-27 1 14 0.44 0.28
-25 1 14 2.29 0.29
-23 1 14 4.39 0.28
-21 1 14 0.03 0.17
-19 1 14 0.03 0.14
-17 1 14 0.13 0.21
-15 1 14 0.33 0.17
-13 1 14 0.73 0.16
-11 1 14 8.99 0.42
-9 1 14 11.64 0.51
-7 1 14 32.13 1.26
-5 1 14 31.48 1.23
-3 1 14 2.33 0.19
-1 1 14 42.13 1.59
1 1 14 10.17 0.44
3 1 14 0.79 0.15
5 1 14 2.83 0.19
7 1 14 0.19 0.2
9 1 14 1.52 0.17
11 1 14 1.11 0.15
13 1 14 1.44 0.17
15 1 14 0.68 0.16
17 1 14 0.35 0.17
19 1 14 0.16 0.17
21 1 14 0.11 2.04
-26 2 14 0.12 0.22
-24 2 14 1.43 0.2
-22 2 14 0.39 0.15
-20 2 14 0.03 1
-18 2 14 0.49 0.15
-16 2 14 0.91 0.16
-14 2 14 0.78 0.16
-12 2 14 2.48 0.2
-10 2 14 4.68 0.29
-8 2 14 67.92 2.58
-6 2 14 26.15 1.01
-4 2 14 0.02 1.59
-2 2 14 3.78 0.23
0 2 14 1.89 0.17
2 2 14 5.95 0.32
4 2 14 0.6 0.16
6 2 14 6.65 0.34
8 2 14 8.13 0.38
10 2 14 12.41 0.56
12 2 14 7.73 0.39
14 2 14 1.67 0.18
16 2 14 5.3 0.38
18 2 14 0.3 0.17
20 2 14 2.15 0.27
22 2 14 0.51 0.32
-25 3 14 2.36 0.28
-23 3 14 3.63 0.26
-21 3 14 0.2 0.24
-19 3 14 0.18 0.15
-17 3 14 0.11 0.18
-15 3 14 0.32 0.28
-13 3 14 0.81 0.17
-11 3 14 7.88 0.37
-9 3 14 10.4 0.47
-7 3 14 27.36 1.01
-5 3 14 25.78 1.01
-3 3 14 2.16 0.18
-1 3 14 36.45 1.35
1 3 14 8.9 0.42
3 3 14 0.71 0.15
5 3 14 2.12 0.18
7 3 14 0.11 0.17
9 3 14 1.3 0.15
11 3 14 0.94 0.15
13 3 14 1.13 0.16
15 3 14 0.49 0.14
17 3 14 0.38 0.15
19 3 14 0.27 0.23
-26 4 14 0.14 0.34
-24 4 14 1.07 0.19
-22 4 14 0.31 0.15
-20 4 14 0.23 0.27
-18 4 14 0.27 0.15
-16 4 14 0.81 0.16
-14 4 14 0.66 0.16
-12 4 14 1.66 0.18
-10 4 14 3.65 0.22
-8 4 14 52.26 2.05
-6 4 14 20.41 0.83
-2 4 14 3.03 0.2
0 4 14 1.73 0.16
2 4 14 3.81 0.22
4 4 14 0.45 0.14
6 4 14 5.17 0.29
8 4 14 6.22 0.32
10 4 14 9.73 0.47
12 4 14 5.76 0.32
14 4 14 1.36 0.15
16 4 14 4.01 0.26
18 4 14 0.33 0.16
20 4 14 1.67 0.23
22 4 14 0.35 0.3
-25 5 14 1.69 0.26
-23 5 14 2.52 0.26
-21 5 14 0.04 0.14
-19 5 14 0.21 0.15
-17 5 14 0.04 0.19
-13 5 14 0.97 0.19
-11 5 14 6.11 0.33
-9 5 14 8.27 0.39
-7 5 14 20.11 0.81
-5 5 14 17.58 0.71
-3 5 14 1.71 0.17
-1 5 14 26.88 1.08
1 5 14 6.95 0.36
3 5 14 0.55 0.15
5 5 14 1.34 0.18
7 5 14 0.43 0.6
9 5 14 0.99 0.16
11 5 14 0.81 0.15
13 5 14 0.74 0.16
15 5 14 0.34 0.15
17 5 14 0.24 0.17
19 5 14 0.3 0.34
21 5 14 0.85 0.76
-24 6 14 0.94 0.27
-22 6 14 0.31 0.17
-18 6 14 0.17 0.16
-16 6 14 0.6 0.14
-14 6 14 0.51 0.15
-12 6 14 1.12 0.19
-10 6 14 2.55 0.2
-8 6 14 34.37 1.38
-6 6 14 13.66 0.59
-2 6 14 2.25 0.18
0 6 14 1.48 0.16
2 6 14 1.74 0.16
4 6 14 0.12 0.16
6 6 14 3.18 0.21
8 6 14 4.29 0.27
10 6 14 6.51 0.34
12 6 14 3.53 0.23
14 6 14 0.91 0.16
16 6 14 2.38 0.2
18 6 14 0.19 0.18
20 6 14 1.2 0.21
-23 7 14 1.64 0.24
-21 7 14 0.1 0.18
-19 7 14 0.04 0.13
-17 7 14 0.12 0.22
-15 7 14 0.21 0.4
-13 7 14 0.8 0.15
-11 7 14 4.21 0.26
-9 7 14 5.96 0.33
-7 7 14 12.49 0.54
-5 7 14 10.15 0.46
-3 7 14 1.19 0.15
-1 7 14 17.66 0.75
1 7 14 4.92 0.27
3 7 14 0.2 0.14
5 7 14 0.59 0.16
7 7 14 0.1 0.17
9 7 14 0.71 0.15
11 7 14 0.5 0.15
13 7 14 0.49 0.16
15 7 14 0.21 0.17
17 7 14 0.2 0.15
19 7 14 0.14 0.2
-22 8 14 0.18 0.21
-18 8 14 0.12 0.15
-16 8 14 0.44 0.14
-14 8 14 0.22 0.16
-12 8 14 0.69 0.17
-10 8 14 1.53 0.21
-8 8 14 18.98 0.84
-6 8 14 7.51 0.38
-4 8 14 0.01 0.86
-2 8 14 1.52 0.17
0 8 14 1.16 0.14
2 8 14 0.55 0.14
4 8 14 0.11 0.17
6 8 14 1.65 0.16
8 8 14 2.4 0.19
10 8 14 3.65 0.25
12 8 14 1.69 0.19
14 8 14 0.57 0.15
16 8 14 1.19 0.18
18 8 14 0.43 0.31
-19 9 14 0.16 0.2
-15 9 14 0.13 0.15
-13 9 14 0.71 0.16
-11 9 14 2.63 0.29
-9 9 14 3.58 0.24
-7 9 14 6.72 0.34
-5 9 14 4.59 0.26
-3 9 14 0.75 0.17
-1 9 14 9.66 0.51
1 9 14 2.93 0.21
3 9 14 0.09 0.13
5 9 14 0.49 0.41
7 9 14 0.05 0.14
9 9 14 0.5 0.15
11 9 14 0.37 0.16
13 9 14 0.21 0.17
15 9 14 0.07 0.17
-18 10 14 0.18 0.37
-16 10 14 0.12 0.14
-14 10 14 0.22 0.2
-12 10 14 0.29 0.16
-10 10 14 1.05 0.18
-8 10 14 8.79 0.53
-6 10 14 3.68 0.23
-4 10 14 0.18 0.2
-2 10 14 0.79 0.17
0 10 14 0.78 0.14
2 10 14 0.08 0.15
4 10 14 0.28 0.33
6 10 14 0.69 0.15
8 10 14 1.28 0.17
10 10 14 1.87 0.18
12 10 14 0.69 0.15
14 10 14 0.24 0.15
-15 11 14 0.12 0.21
-13 11 14 0.38 0.13
-11 11 14 1.33 0.17
-9 11 14 1.87 0.18
-7 11 14 3.01 0.21
-5 11 14 1.91 0.18
-3 11 14 0.45 0.14
-1 11 14 4.87 0.31
1 11 14 1.54 0.16
3 11 14 0.12 0.18
5 11 14 0.17 0.16
7 11 14 0.06 0.13
9 11 14 0.28 0.16
11 11 14 0.24 0.17
-12 12 14 0.1 0.13
-10 12 14 0.44 0.13
-8 12 14 3.33 0.22
-6 12 14 1.55 0.18
-4 12 14 0.16 0.17
-2 12 14 0.49 0.21
0 12 14 0.55 0.15
2 12 14 0.03 0.99
4 12 14 0.03 0.13
6 12 14 0.39 0.16
8 12 14 0.51 0.15
-7 13 14 1.05 0.16
-5 13 14 0.56 0.11
-3 13 14 0.27 0.15
-1 13 14 1.93 0.2
1 13 14 0.62 0.15
3 13 14 0.02 0.99
-24 0 15 0.75 0.32
-22 0 15 3.65 0.6
-20 0 15 9.55 0.73
-18 0 15 6.09 0.48
-16 0 15 0.58 0.26
-14 0 15 8.81 0.61
-12 0 15 31.73 1.94
-10 0 15 7.78 0.54
-8 0 15 3.38 0.32
-6 0 15 4.77 0.39
-4 0 15 7.12 0.48
-2 0 15 28.51 1.66
0 0 15 28.97 1.65
2 0 15 8.34 0.57
4 0 15 2.01 0.26
6 0 15 0.05 0.22
8 0 15 0.5 0.22
10 0 15 0.54 0.23
12 0 15 0.42 0.38
14 0 15 1.58 0.23
16 0 15 0.42 0.27
18 0 15 7.08 0.85
-25 1 15 0.24 0.44
-23 1 15 0.15 0.19
-21 1 15 0.32 0.15
-19 1 15 2.3 0.23
-17 1 15 0.23 0.17
-15 1 15 18.49 0.83
-13 1 15 14.78 0.65
-11 1 15 0.41 0.19
-9 1 15 2.59 0.2
-7 1 15 5.2 0.29
-5 1 15 6.36 0.32
-3 1 15 10.09 0.45
-1 1 15 1.32 0.17
1 1 15 8.53 0.42
3 1 15 17.17 0.77
5 1 15 20.4 0.93
7 1 15 0.16 0.14
9 1 15 20.21 0.96
11 1 15 7.5 0.4
13 1 15 1.74 0.21
15 1 15 3.42 0.25
17 1 15 0.28 0.16
19 1 15 6.92 0.58
-24 2 15 0.57 0.24
-22 2 15 3.52 0.35
-20 2 15 8.66 0.52
-18 2 15 5.48 0.3
-16 2 15 0.38 0.17
-14 2 15 8.14 0.43
-12 2 15 29.36 1.24
-10 2 15 6.83 0.33
-8 2 15 3.21 0.23
-6 2 15 4.62 0.27
-4 2 15 6.51 0.33
-2 2 15 26.61 1.13
0 2 15 27.13 1.12
2 2 15 7.78 0.38
4 2 15 1.73 0.18
6 2 15 0.12 0.18
8 2 15 0.57 0.15
10 2 15 0.51 0.16
12 2 15 0.31 0.27
14 2 15 1.46 0.18
16 2 15 0.48 0.16
18 2 15 6.48 0.59
20 2 15 3.83 0.52
-23 3 15 0.26 0.26
-21 3 15 0.23 0.17
-19 3 15 1.98 0.2
-17 3 15 0.14 0.17
-15 3 15 15.69 0.81
-13 3 15 12.32 0.59
-11 3 15 0.37 0.21
-9 3 15 2.28 0.19
-7 3 15 4.56 0.26
-5 3 15 4.84 0.27
-3 3 15 8.07 0.37
-1 3 15 1.18 0.17
1 3 15 7.21 0.35
3 3 15 13.81 0.65
5 3 15 16.19 0.81
7 3 15 0.27 0.16
9 3 15 16.32 1.02
11 3 15 6.09 0.33
13 3 15 1.41 0.17
15 3 15 2.77 0.26
17 3 15 0.7 0.63
19 3 15 5.66 0.66
-22 4 15 2.66 0.45
-20 4 15 6.84 0.44
-18 4 15 4.26 0.26
-16 4 15 0.33 0.19
-14 4 15 6.71 0.35
-12 4 15 21.83 1.09
-10 4 15 5.24 0.28
-8 4 15 2.73 0.23
-6 4 15 4.15 0.26
-4 4 15 5.21 0.28
-2 4 15 20.24 0.85
0 4 15 21.03 0.89
2 4 15 6.26 0.37
4 4 15 1.46 0.19
6 4 15 0.1 0.15
8 4 15 0.38 0.15
10 4 15 0.58 0.24
12 4 15 0.21 0.25
14 4 15 1.06 0.19
16 4 15 0.43 0.23
18 4 15 5 0.45
-23 5 15 0.12 0.22
-21 5 15 0.24 0.21
-19 5 15 1.3 0.25
-17 5 15 0.12 0.15
-15 5 15 11.03 0.56
-13 5 15 8.65 0.46
-11 5 15 0.19 0.16
-9 5 15 1.72 0.18
-7 5 15 3.44 0.22
-5 5 15 2.6 0.22
-3 5 15 5.13 0.29
-1 5 15 0.88 0.15
1 5 15 5.38 0.29
3 5 15 10.16 0.48
5 5 15 11.09 0.55
7 5 15 0.24 0.15
9 5 15 12.67 0.73
11 5 15 4.32 0.27
13 5 15 0.99 0.17
15 5 15 1.88 0.22
17 5 15 0.43 0.25
-22 6 15 2.23 0.63
-20 6 15 4.48 0.38
-18 6 15 2.74 0.27
-16 6 15 0.1 0.15
-14 6 15 4.68 0.28
-12 6 15 14.53 0.8
-10 6 15 3.32 0.22
-8 6 15 2.04 0.18
-6 6 15 3.12 0.23
-4 6 15 3.63 0.27
-2 6 15 12.94 0.64
0 6 15 14.53 0.69
2 6 15 4.3 0.26
4 6 15 0.84 0.16
6 6 15 0.25 0.46
8 6 15 0.35 0.19
10 6 15 0.43 0.26
12 6 15 0.14 0.25
14 6 15 0.64 0.17
16 6 15 0.24 0.2
-21 7 15 0.32 0.43
-19 7 15 0.77 0.24
-17 7 15 0.09 0.16
-15 7 15 6.1 0.38
-13 7 15 5.2 0.31
-11 7 15 0.21 0.17
-9 7 15 1.26 0.17
-7 7 15 2.45 0.19
-5 7 15 1.22 0.16
-3 7 15 2.49 0.2
-1 7 15 0.68 0.14
1 7 15 3.37 0.21
3 7 15 6.34 0.34
5 7 15 6.1 0.36
7 7 15 0.33 0.15
9 7 15 7.81 0.45
11 7 15 2.61 0.22
13 7 15 0.67 0.17
15 7 15 0.94 0.24
-18 8 15 1.56 0.3
-16 8 15 0.09 0.16
-14 8 15 2.74 0.24
-12 8 15 8.23 0.56
-10 8 15 1.68 0.18
-8 8 15 1.38 0.16
-6 8 15 2.12 0.17
-4 8 15 2.02 0.18
-2 8 15 7.27 0.37
0 8 15 8.59 0.46
2 8 15 2.7 0.22
4 8 15 0.55 0.17
6 8 15 0.12 0.16
8 8 15 0.14 0.17
10 8 15 0.26 0.69
12 8 15 0.08 0.34
14 8 15 0.53 0.25
-17 9 15 0.07 0.18
-15 9 15 3.09 0.3
-13 9 15 2.6 0.21
-11 9 15 0.49 0.44
-9 9 15 0.55 0.16
-7 9 15 1.42 0.16
-5 9 15 0.33 0.15
-3 9 15 1.09 0.16
-1 9 15 0.49 0.16
1 9 15 1.81 0.19
3 9 15 3.41 0.25
5 9 15 2.77 0.22
7 9 15 0.32 0.18
9 9 15 4.08 0.3
11 9 15 1.31 0.2
13 9 15 0.43 0.2
-14 10 15 1.37 0.19
-12 10 15 3.69 0.31
-10 10 15 0.7 0.15
-8 10 15 0.78 0.16
-6 10 15 1.27 0.15
-4 10 15 1.16 0.16
-2 10 15 3.45 0.26
0 10 15 4.15 0.28
2 10 15 1.39 0.16
4 10 15 0.29 0.15
6 10 15 0.08 0.14
8 10 15 0.69 0.43
10 10 15 0.38 0.34
-11 11 15 0.12 0.18
-9 11 15 0.41 0.17
-7 11 15 0.72 0.13
-5 11 15 0.34 0.35
-3 11 15 0.32 0.14
-1 11 15 0.34 0.18
1 11 15 0.86 0.14
3 11 15 1.48 0.2
5 11 15 1.07 0.16
7 11 15 0.34 0.22
-4 12 15 0.45 0.13
-2 12 15 1.29 0.2
0 12 15 1.78 0.26
-22 0 16 1.15 0.36
-20 0 16 1.94 0.52
-18 0 16 0.57 0.28
-14 0 16 1.72 0.31
-12 0 16 6.16 0.45
-10 0 16 28.77 1.71
-8 0 16 6.8 0.49
-6 0 16 0.14 0.33
-4 0 16 3.68 0.32
-2 0 16 22.87 2.01
0 0 16 8.13 0.54
2 0 16 2.77 0.28
4 0 16 7.13 0.51
6 0 16 9.94 0.67
8 0 16 31.83 2.94
10 0 16 15.61 1.49
12 0 16 0.42 0.23
14 0 16 1.72 0.36
16 0 16 0.01 1.07
-21 1 16 1.65 0.29
-19 1 16 0.87 0.17
-17 1 16 1.83 0.18
-15 1 16 0.41 0.16
-13 1 16 1.05 0.19
-11 1 16 1.66 0.19
-9 1 16 2.84 0.22
-7 1 16 13.12 0.59
-5 1 16 8.95 0.45
-3 1 16 4.44 0.26
-1 1 16 2.73 0.2
1 1 16 1.19 0.16
3 1 16 0.98 0.15
5 1 16 0.82 0.18
7 1 16 8.18 0.43
9 1 16 2.7 0.22
11 1 16 1.45 0.18
13 1 16 2.08 0.19
15 1 16 0.6 0.19
-22 2 16 1.17 0.33
-20 2 16 1.49 0.2
-18 2 16 0.76 0.19
-14 2 16 1.58 0.22
-12 2 16 5.63 0.33
-10 2 16 26.38 1.24
-8 2 16 6.15 0.33
-4 2 16 3.49 0.22
-2 2 16 20.44 1.2
0 2 16 7.63 0.38
2 2 16 2.75 0.2
4 2 16 6.3 0.35
6 2 16 9.15 0.5
8 2 16 29.5 2.04
10 2 16 13.82 0.96
12 2 16 0.47 0.16
14 2 16 1.71 0.19
16 2 16 0.14 0.33
-21 3 16 1.13 0.3
-19 3 16 0.78 0.17
-17 3 16 1.7 0.22
-15 3 16 0.34 0.17
-13 3 16 1.01 0.22
-11 3 16 1.43 0.17
-9 3 16 2.45 0.22
-7 3 16 11.07 0.51
-5 3 16 7.35 0.43
-3 3 16 3.69 0.23
-1 3 16 2.21 0.19
1 3 16 1.16 0.16
3 3 16 1.01 0.15
5 3 16 0.7 0.15
7 3 16 6.72 0.37
9 3 16 2.24 0.19
11 3 16 1.09 0.19
13 3 16 1.62 0.2
15 3 16 0.5 0.19
17 3 16 0.38 0.26
-20 4 16 1.04 0.23
-18 4 16 0.58 0.2
-16 4 16 0.07 0.19
-14 4 16 1.34 0.19
-12 4 16 4.11 0.3
-10 4 16 20.34 1.1
-8 4 16 5.05 0.32
-4 4 16 2.64 0.2
-2 4 16 15.07 0.97
0 4 16 5.46 0.3
2 4 16 2.15 0.19
4 4 16 5.04 0.28
6 4 16 7.24 0.41
8 4 16 21.71 1.45
10 4 16 10.56 0.87
12 4 16 0.39 0.17
14 4 16 1.28 0.18
16 4 16 0.23 0.39
-19 5 16 0.52 0.23
-17 5 16 1.03 0.2
-15 5 16 0.26 0.24
-13 5 16 0.67 0.21
-11 5 16 0.89 0.18
-9 5 16 1.62 0.22
-7 5 16 7.73 0.39
-5 5 16 5.3 0.33
-3 5 16 2.51 0.19
-1 5 16 1.78 0.17
1 5 16 1.19 0.16
3 5 16 0.83 0.17
5 5 16 0.52 0.16
7 5 16 4.8 0.31
9 5 16 1.71 0.2
11 5 16 0.79 0.18
13 5 16 1.35 0.2
15 5 16 0.46 0.32
-18 6 16 0.46 0.28
-14 6 16 0.72 0.21
-12 6 16 2.49 0.3
-10 6 16 12.96 0.79
-8 6 16 3.36 0.23
-6 6 16 0.02 0.95
-4 6 16 1.77 0.19
-2 6 16 9.57 0.61
0 6 16 3.16 0.23
2 6 16 1.68 0.19
4 6 16 3.49 0.24
6 6 16 4.95 0.3
8 6 16 14.94 1.23
10 6 16 7.19 0.58
12 6 16 0.19 0.17
14 6 16 0.84 0.24
-17 7 16 0.61 0.26
-15 7 16 0.08 0.26
-13 7 16 0.48 0.19
-11 7 16 0.56 0.19
-9 7 16 0.83 0.16
-7 7 16 4.46 0.28
-5 7 16 3.5 0.23
-3 7 16 1.44 0.17
-1 7 16 1.2 0.15
1 7 16 1.01 0.16
3 7 16 0.72 0.15
5 7 16 0.29 0.16
7 7 16 2.81 0.23
9 7 16 1.24 0.19
11 7 16 0.53 0.2
13 7 16 0.74 0.28
-14 8 16 0.56 0.26
-12 8 16 1.45 0.21
-10 8 16 7.1 0.56
-8 8 16 1.85 0.19
-6 8 16 0.44 0.52
-4 8 16 1.16 0.18
-2 8 16 4.75 0.32
0 8 16 1.52 0.16
2 8 16 0.91 0.21
4 8 16 2.09 0.22
6 8 16 3 0.28
8 8 16 8.87 0.73
10 8 16 3.88 0.41
-13 9 16 0.26 0.32
-11 9 16 0.48 0.24
-9 9 16 0.39 0.18
-7 9 16 2.31 0.21
-5 9 16 1.89 0.18
-3 9 16 0.63 0.16
-1 9 16 0.76 0.16
1 9 16 0.96 0.17
3 9 16 0.65 0.14
5 9 16 0.15 0.17
7 9 16 1.48 0.22
-8 10 16 0.79 0.16
-6 10 16 0.33 0.63
-4 10 16 0.67 0.17
-2 10 16 2.07 0.21
0 10 16 0.66 0.15
2 10 16 0.61 0.15
4 10 16 1.08 0.18
-18 0 17 2.1 0.41
-16 0 17 1.04 0.35
-14 0 17 0.37 0.52
-12 0 17 0.13 0.28
-10 0 17 0.48 0.24
-8 0 17 0.53 0.27
-6 0 17 0.37 0.22
-4 0 17 1.19 0.23
0 0 17 5.62 0.44
2 0 17 4.9 0.41
4 0 17 0.45 0.29
6 0 17 0.16 0.57
8 0 17 0.02 1.07
10 0 17 0.41 0.28
12 0 17 0.19 0.27
-19 1 17 0.38 0.3
-17 1 17 14.04 1.01
-15 1 17 12.2 0.91
-13 1 17 4.11 0.33
-11 1 17 2.04 0.19
-9 1 17 1.89 0.21
-7 1 17 8.73 0.44
-5 1 17 1.47 0.22
-3 1 17 0.52 0.15
-1 1 17 0.17 0.41
1 1 17 12.37 1.08
3 1 17 21.35 1.38
5 1 17 1.1 0.16
7 1 17 0.3 0.15
9 1 17 0.4 0.15
11 1 17 0.44 0.26
13 1 17 0.34 0.52
-18 2 17 1.96 0.38
-16 2 17 1.28 0.23
-14 2 17 0.15 0.2
-12 2 17 0.11 0.16
-10 2 17 0.53 0.18
-8 2 17 0.57 0.18
-6 2 17 0.36 0.19
-4 2 17 1.13 0.16
0 2 17 5.24 0.3
2 2 17 4.71 0.29
4 2 17 0.29 0.17
6 2 17 0.04 0.16
8 2 17 0.05 0.14
10 2 17 0.25 0.19
12 2 17 0.06 0.27
-17 3 17 12.07 1.28
-15 3 17 10.46 0.71
-13 3 17 3.94 0.46
-11 3 17 1.75 0.19
-9 3 17 1.4 0.18
-7 3 17 7.17 0.43
-5 3 17 1.41 0.24
-3 3 17 0.13 0.26
-1 3 17 0.2 0.47
1 3 17 10.82 0.71
3 3 17 18.6 1.21
5 3 17 0.95 0.16
7 3 17 0.26 0.17
9 3 17 0.48 0.18
11 3 17 0.37 0.29
13 3 17 0.33 0.31
-16 4 17 0.83 0.34
-14 4 17 0.1 0.21
-12 4 17 0.02 1
-10 4 17 0.58 0.16
-8 4 17 0.42 0.15
-6 4 17 0.45 0.17
-4 4 17 0.98 0.18
-2 4 17 0.02 1
0 4 17 3.8 0.26
2 4 17 3.66 0.29
4 4 17 0.34 0.16
6 4 17 0.04 0.18
8 4 17 0.14 0.2
10 4 17 0.23 0.21
12 4 17 0.04 0.21
-15 5 17 7.84 0.77
-13 5 17 2.23 0.44
-11 5 17 1.18 0.21
-9 5 17 0.84 0.2
-7 5 17 4.57 0.31
-5 5 17 0.95 0.19
-3 5 17 0.4 0.21
-1 5 17 0.11 0.17
1 5 17 7.89 0.55
3 5 17 13.27 1.04
5 5 17 0.72 0.2
7 5 17 0.12 0.17
9 5 17 0.34 0.24
11 5 17 0.08 0.2
-14 6 17 0.43 0.36
-12 6 17 0.1 0.34
-10 6 17 0.55 0.18
-8 6 17 0.52 0.18
-6 6 17 0.26 0.16
-4 6 17 0.58 0.18
-2 6 17 0.26 0.62
0 6 17 2.59 0.23
2 6 17 2.65 0.28
4 6 17 0.54 0.33
6 6 17 0.08 0.18
8 6 17 0.42 0.81
10 6 17 0.32 0.42
-13 7 17 2.02 0.46
-11 7 17 0.57 0.24
-9 7 17 0.51 0.21
-7 7 17 2.48 0.26
-5 7 17 0.44 0.18
-3 7 17 0.34 0.22
-1 7 17 0.17 0.24
1 7 17 4.71 0.48
3 7 17 7.78 0.63
5 7 17 0.54 0.18
7 7 17 0.05 1.53
-10 8 17 0.44 0.33
-8 8 17 0.15 0.27
-6 8 17 0.01 1.11
-4 8 17 0.57 0.2
-2 8 17 0.01 0.87
0 8 17 1.32 0.2
2 8 17 1.52 0.22
4 8 17 0.14 0.21
-14 0 18 0.57 0.41
-12 0 18 0.75 0.33
-10 0 18 1.51 0.41
-8 0 18 3.58 0.58
-6 0 18 0.14 0.25
-4 0 18 3.48 0.35
-2 0 18 0.04 0.2
0 0 18 3.53 0.38
2 0 18 0.4 0.38
4 0 18 0.42 0.44
6 0 18 0.24 0.34
8 0 18 0.33 0.49
-13 1 18 1.4 0.34
-11 1 18 0.05 1.9
-9 1 18 0.37 0.21
-7 1 18 2.71 0.25
-5 1 18 1.56 0.28
-1 1 18 0.16 0.19
1 1 18 0.55 0.18
3 1 18 0.21 0.19
5 1 18 0.81 0.2
7 1 18 0.08 0.34
-14 2 18 0.52 0.32
-12 2 18 0.14 0.32
-10 2 18 1.46 0.25
-8 2 18 3.53 0.4
-6 2 18 0.01 0.94
-4 2 18 3.28 0.32
-2 2 18 0.12 0.2
0 2 18 3.18 0.29
2 2 18 0.12 0.2
4 2 18 0.1 0.18
6 2 18 0.26 0.28
8 2 18 0.07 0.28
-13 3 18 0.59 0.31
-11 3 18 0.07 1.73
-9 3 18 0.15 0.19
-7 3 18 2.12 0.23
-5 3 18 1.31 0.24
-3 3 18 0.1 0.24
-1 3 18 0.21 0.17
1 3 18 0.66 0.16
3 3 18 0.12 0.2
5 3 18 0.78 0.29
7 3 18 0.03 1.45
-12 4 18 0.54 0.52
-10 4 18 1.1 0.27
-8 4 18 2.91 0.52
-6 4 18 0.1 0.21
-4 4 18 2.19 0.29
-2 4 18 0.06 0.19
0 4 18 2.65 0.32
2 4 18 0.17 0.26
4 4 18 0.04 0.21
6 4 18 0.03 1.13
-9 5 18 0.15 0.23
-7 5 18 1.47 0.28
-5 5 18 0.56 0.36
-3 5 18 0.06 0.2
-1 5 18 0.41 0.32
1 5 18 0.41 0.21
3 5 18 0.05 0.19
5 5 18 0.49 0.23
-6 6 18 0.01 1.06
-4 6 18 0.8 0.45
-2 6 18 0.18 0.24
0 6 18 1.78 0.51
2 6 18 0.15 0.26
-5 1 19 3.68 0.49
-3 1 19 1.71 0.44
-1 1 19 3.22 0.46
-4 2 19 0.16 0.29
-2 2 19 1.08 0.31
