#------------------------------------------------------------------------------
#$Date: 2020-04-10 08:12:04 +0300 (Fri, 10 Apr 2020) $
#$Revision: 250605 $
#$URL: file:///home/coder/svn-repositories/cod/cif/2/02/20/2022026.cif $
#------------------------------------------------------------------------------
#
# This file is available in the Crystallography Open Database (COD),
# http://www.crystallography.net/. The original data for this entry
# were provided by IUCr Journals, http://journals.iucr.org/.
#
# The file may be used within the scientific community so long as
# proper attribution is given to the journal article from which the
# data were obtained.
#
data_2022026
loop_
_publ_author_name
'Jha, Kunal Kumar'
'Gruza, Barbara'
'Kumar, Prashant'
'Chodkiewicz, Michal Leszek'
'Dominiak, Paulina Maria'
_publ_section_title
;
 TAAM: a reliable and user friendly tool for hydrogen-atom location using
 routine X-ray diffraction data
;
_journal_issue                   3
_journal_name_full
'Acta Crystallographica Section B Structural Science, Crystal Engineering and Materials'
_journal_paper_doi               10.1107/S2052520620002917
_journal_volume                  76
_journal_year                    2020
_chemical_formula_moiety         'C2 H5 N3 O S'
_chemical_formula_sum            'C2 H5 N3 O S'
_chemical_formula_weight         119.15
_space_group_crystal_system      monoclinic
_space_group_IT_number           14
_space_group_name_Hall           '-P 2ybc'
_space_group_name_H-M_alt        'P 1 21/c 1'
_symmetry_Int_Tables_number      14
_audit_creation_date             2019-09-24
_audit_creation_method
;
Olex2 1.2
(compiled 2018.05.29 svn.r3508 for OlexSys, GUI svn.r5506)
;
_cell_angle_alpha                90
_cell_angle_beta                 98.403(10)
_cell_angle_gamma                90
_cell_formula_units_Z            4
_cell_length_a                   7.2359(5)
_cell_length_b                   7.3713(5)
_cell_length_c                   9.4768(7)
_cell_measurement_temperature    90(2)
_cell_volume                     500.05(6)
_computing_molecular_graphics    'Olex2 (Dolomanov et al., 2009)'
_computing_publication_material  'Olex2 (Dolomanov et al., 2009)'
_computing_structure_refinement  'olex2.refine (Bourhis et al., 2015)'
_diffrn_ambient_temperature      90(2)
_diffrn_measured_fraction_theta_full 0.9657
_diffrn_measured_fraction_theta_max 0.9657
_diffrn_measurement_device_type  'CCD area detector'
_diffrn_radiation_type           'Mo K\a'
_diffrn_radiation_wavelength     0.71073
_diffrn_reflns_av_R_equivalents  0.0000
_diffrn_reflns_av_unetI/netI     0.0155
_diffrn_reflns_limit_h_max       15
_diffrn_reflns_limit_h_min       -15
_diffrn_reflns_limit_k_max       15
_diffrn_reflns_limit_k_min       0
_diffrn_reflns_limit_l_max       20
_diffrn_reflns_limit_l_min       0
_diffrn_reflns_number            5129
_diffrn_reflns_theta_full        50.3057
_diffrn_reflns_theta_max         50.31
_diffrn_reflns_theta_min         3.52
_exptl_absorpt_coefficient_mu    0.520
_exptl_crystal_density_diffrn    1.5825
_exptl_crystal_F_000             248.5747
_refine_diff_density_max         0.7865
_refine_diff_density_min         -0.2740
_refine_diff_density_rms         0.0618
_refine_ls_d_res_high            0.4618
_refine_ls_d_res_low             5.7946
_refine_ls_goodness_of_fit_ref   1.0492
_refine_ls_hydrogen_treatment    refall
_refine_ls_matrix_type           full
_refine_ls_number_constraints    0
_refine_ls_number_parameters     109
_refine_ls_number_reflns         5129
_refine_ls_number_restraints     0
_refine_ls_restrained_S_all      1.0492
_refine_ls_R_factor_all          0.0215
_refine_ls_R_factor_gt           0.0186
_refine_ls_shift/su_max          0.0004
_refine_ls_shift/su_mean         0.0001
_refine_ls_structure_factor_coef Fsqd
_refine_ls_weighting_details
'w=1/[\s^2^(Fo^2^)+(0.0309P)^2^] where P=(Fo^2^+2Fc^2^)/3'
_refine_ls_weighting_scheme      calc
_refine_ls_wR_factor_gt          0.0467
_refine_ls_wR_factor_ref         0.0477
_reflns_Friedel_coverage         0.0
_reflns_limit_h_max              15
_reflns_limit_h_min              -15
_reflns_limit_k_max              15
_reflns_limit_k_min              0
_reflns_limit_l_max              20
_reflns_limit_l_min              0
_reflns_number_gt                4625
_reflns_number_total             5129
_reflns_threshold_expression     I>=2u(I)
_iucr_refine_instructions_details
;
TITL 1-formyl-3-thiosemicarbazide
CELL 0.71073 7.2359 7.3713 9.4768 90 98.403 90
ZERR 4 0 0 0 0 0 0
LATT 1
SYMM -X,0.5+Y,0.5-Z
SFAC C H N O S
UNIT 8 20 12 4 4

ACTA 
BOND $H
WGHT 0.030861 0
FVAR 0.997726
REM <olex2.extras>
REM <HklSrc "%.\\e4bbfd7a597d2795723bf2b637ebc7a9.hkl">
REM </olex2.extras>

S(1)  5     0.27971  0.80964  0.54040  11.00000  0.00820  0.01233  0.01456 =
 0.00317 -0.00033 -0.00067 
O(7)  4     0.86121  0.86927  0.83106  11.00000  0.01372  0.01759  0.01229 =
 -0.00278  0.00079  0.00397 
N(3)  3     0.49274  0.55009  0.67239  11.00000  0.01151  0.01157  0.01522 =
 0.00395  0.00152 -0.00052 
H(3a  2     0.37415  0.49511  0.68424  11.00000  0.02511  0.03132  0.02353 =
 0.00407 -0.00117  0.00647 
H(3b  2     0.61251  0.49067  0.71195  11.00000  0.02321  0.01907  0.04551 =
 0.00963  0.00485  0.00415 
N(4)  3     0.64755  0.78217  0.57683  11.00000  0.00834  0.01153  0.01366 =
 0.00254  0.00097 -0.00067 
H(4)  2     0.64820  0.90225  0.53600  11.00000  0.01542  0.03447  0.02625 =
 -0.00111  0.00138 -0.00020 
N(5)  3     0.81868  0.70305  0.62611  11.00000  0.00896  0.01304  0.01211 =
 -0.00124  0.00143  0.00115 
H(5)  2     0.88024  0.63753  0.55624  11.00000  0.02010  0.02889  0.02409 =
 -0.00324  0.00500 -0.00452 
C(2)  1     0.48613  0.70520  0.60132  11.00000  0.00868  0.00980  0.00944 =
 0.00070  0.00077 -0.00059 
C(6)  1     0.91839  0.76000  0.75006  11.00000  0.00919  0.01306  0.01118 =
 -0.00010  0.00139  0.00176 
H(6)  2     1.05026  0.69522  0.77015  11.00000  0.02591  0.03134  0.03851 =
 -0.00448  0.00579  0.00602 
HKLF 4

END
Q1 1 0.275 0.8 0.537037 11 0.05 0.79
Q2 1 0.875 0.875 0.833333 11 0.05 0.41
Q3 1 0.825 0.7 0.62963 11 0.05 0.33
Q4 1 0.5 0.55 0.666667 11 0.05 0.25
Q5 1 0.65 0.775 0.574074 11 0.05 0.25
Q6 1 0.075 0.7 0.481481 11 0.05 0.2
Q7 1 0.95 0.45 0.592593 11 0.05 0.19
Q8 1 1.15 0.675 0.87037 11 0.05 0.18
Q9 1 0.425 0.6 0.462963 11 0.05 0.17
Q10 1 0.5 0.7 0.611111 11 0.05 0.16
Q11 1 0.925 0.775 0.759259 11 0.05 0.15
Q12 1 0.275 0.575 0.537037 11 0.05 0.15
Q13 1 0.675 0.925 0.37037 11 0.05 0.15
Q14 1 0.4 0.475 0.703704 11 0.05 0.14
Q15 1 0.375 0.25 0.666667 11 0.05 0.14
Q16 1 0.625 0.325 0.648148 11 0.05 0.14
Q17 1 0.65 0.475 0.703704 11 0.05 0.13
Q18 1 0.85 0.6 0.555556 11 0.05 0.13
Q19 1 0.55 0.975 0.555556 11 0.05 0.12
Q20 1 0.4 0.45 0.592593 11 0.05 0.12

  REM The information below was added by Olex2.
  REM
  REM R1 = 0.0186 for 4625 Fo > 4sig(Fo) and 0.0215 for all 5129 data
  REM 109 parameters refined using 0 restraints
  REM Highest difference peak 0.7865, deepest hole -0.2740
  REM Mean Shift 0.0001, Max Shift 0.0004.

  REM +++ Tabular Listing of Refinement Information +++
  REM R1_all = 0.0215
  REM R1_gt = 0.0186
  REM wR_ref = 0.0477
  REM GOOF = 1.0492
  REM Shift_max = 0.0004
  REM Shift_mean = 0.0001
  REM Reflections_all = 5129
  REM Reflections_gt = 4625
  REM Parameters = 109
  REM Hole = -0.2740
  REM Peak = 0.7865
  REM Flack = n/a

  
;
_cod_data_source_file            1_TAAM_ANIS_max.cif
_cod_data_source_block           1_TAAM_ANIS_max
_cod_original_cell_volume        500.047(60)
_cod_database_code               2022026
_olex2_refinement_description
;
;
_iucr_refine_fcf_details
;
data_1-formyl-3-thiosemicarbazide
_computing_structure_refinement   'olex2.refine (Bourhis et al., 2015)'
_shelx_refln_list_code            4
loop_
  _space_group_symop_id
  _space_group_symop_operation_xyz
  1  x,y,z
  2  -x,y+1/2,-z+1/2
  3  -x,-y,-z
  4  x,-y-1/2,z-1/2

_space_group_crystal_system       monoclinic
_space_group_IT_number            14
_space_group_name_H-M_alt         'P 1 21/c 1'
_space_group_name_Hall            '-P 2ybc'
_symmetry_space_group_name_H-M    'P 1 21/c 1'
_symmetry_space_group_name_Hall   '-P 2ybc'
_symmetry_Int_Tables_number       14
_cell_length_a                    7.2359
_cell_length_b                    7.3713
_cell_length_c                    9.4768
_cell_angle_alpha                 90
_cell_angle_beta                  98.403
_cell_angle_gamma                 90
_cell_volume                      500.047043
loop_
  _refln_index_h
  _refln_index_k
  _refln_index_l
  _refln_F_squared_calc
  _refln_F_squared_meas
  _refln_F_squared_sigma
  _refln_F_squared_weight
  _refln_observed_status
-15 1 1 0.767 0.362 0.261 261.240 o
-15 1 2 63.557 64.503 1.095 3.525 o
-15 1 3 0.249 0.201 0.231 335.370 o
-15 1 4 15.249 15.088 0.673 26.631 o
-15 1 5 13.820 14.596 0.382 53.574 o
-15 1 6 0.172 0.241 0.221 366.634 o
-15 1 7 2.313 2.752 0.241 280.495 o
-15 1 8 0.585 1.005 0.221 363.185 o
-15 2 1 1.066 0.834 0.231 329.944 o
-15 2 2 10.562 10.879 0.352 77.243 o
-15 2 3 9.144 8.921 0.321 98.642 o
-15 2 4 22.598 22.703 0.472 25.213 o
-15 2 5 16.342 16.093 0.402 43.367 o
-15 2 6 4.854 5.013 0.321 141.925 o
-15 2 7 10.180 10.005 0.321 89.198 o
-15 2 8 2.473 2.210 0.894 22.268 o
-15 3 1 0.165 -0.040 0.372 129.706 o
-15 3 2 7.074 7.534 0.362 99.266 o
-15 3 3 9.081 9.292 0.332 94.490 o
-15 3 4 0.043 0.191 0.201 443.866 o
-15 3 5 17.159 17.007 0.402 40.708 o
-15 3 6 0.655 0.553 0.221 364.171 o
-15 3 7 42.531 43.427 0.784 7.590 o
-15 4 1 4.567 5.234 0.281 177.499 o
-15 4 2 0.293 0.824 0.231 334.379 o
-15 4 3 7.989 7.996 0.311 113.565 o
-15 4 4 1.486 1.597 0.221 351.032 o
-15 4 5 16.162 15.651 0.392 45.134 o
-14 0 2 0.069 -0.010 0.382 122.978 o
-14 0 4 7.794 7.183 0.382 89.339 o
-14 0 6 13.021 13.361 0.462 47.430 o
-14 0 8 93.165 98.819 2.250 1.311 o
-14 1 1 10.625 10.618 0.442 59.175 o
-14 1 2 17.898 18.283 0.472 33.660 o
-14 1 3 14.261 14.516 0.542 36.553 o
-14 1 4 137.309 143.492 1.959 0.802 o
-14 1 5 17.773 18.213 0.462 34.505 o
-14 1 6 35.474 35.602 0.723 10.392 o
-14 1 7 1.827 1.617 0.241 293.458 o
-14 1 8 8.131 7.715 0.321 109.155 o
-14 1 9 0.384 0.482 0.251 283.389 o
-14 1 10 6.091 7.032 0.703 33.588 o
-14 2 1 24.850 24.662 0.613 18.655 o
-14 2 2 18.752 19.519 0.482 31.081 o
-14 2 3 43.757 43.990 1.025 6.223 o
-14 2 4 3.131 3.144 0.281 202.539 o
-14 2 5 24.577 24.572 0.532 20.870 o
-14 2 6 37.560 38.083 0.663 9.980 o
-14 2 7 14.732 14.837 0.904 17.482 o
-14 2 8 9.343 9.533 0.342 89.192 o
-14 2 9 1.466 1.818 0.281 219.870 o
-14 2 10 27.416 28.992 1.216 8.069 o
-14 2 11 8.339 9.262 0.763 27.398 o
-14 3 1 49.131 50.017 0.814 5.996 o
-14 3 2 2.142 1.919 0.271 230.823 o
-14 3 3 9.828 9.563 0.583 41.693 o
-14 3 4 46.052 46.963 0.844 6.496 o
-14 3 5 7.595 7.584 0.332 108.754 o
-14 3 6 3.696 3.596 0.271 207.554 o
-14 3 7 26.960 26.048 0.522 18.872 o
-14 3 8 7.449 7.816 0.372 92.977 o
-14 3 9 31.357 33.462 0.693 12.281 o
-14 3 10 5.397 5.565 0.321 136.114 o
-14 4 1 62.236 64.935 1.065 3.635 o
-14 4 2 1.028 1.226 0.261 258.381 o
-14 4 3 61.972 64.121 1.205 3.449 o
-14 4 4 4.754 4.661 0.291 168.878 o
-14 4 5 56.265 57.672 0.874 4.680 o
-14 4 6 8.804 8.117 0.583 43.762 o
-14 4 7 36.803 36.335 0.623 10.751 o
-14 4 8 0.153 0.090 0.422 100.661 o
-14 4 9 0.201 0.131 0.231 335.506 o
-14 4 10 2.283 2.742 0.271 226.214 o
-14 5 1 61.358 62.554 1.266 3.424 o
-14 5 2 1.614 1.447 0.281 220.074 o
-14 5 3 6.611 6.751 0.321 123.128 o
-14 5 4 7.459 7.534 0.462 67.149 o
-14 5 5 3.600 2.994 0.321 156.740 o
-14 5 6 0.058 -0.141 0.372 129.715 o
-14 5 7 25.278 26.078 0.824 13.785 o
-14 5 8 4.093 3.978 0.301 168.298 o
-14 5 9 43.181 46.140 0.824 7.065 o
-14 6 1 0.568 0.532 0.352 144.621 o
-14 6 2 7.252 7.755 0.321 115.051 o
-14 6 3 74.331 76.457 1.577 2.283 o
-14 6 4 4.461 4.480 0.271 193.579 o
-14 6 5 64.328 66.371 2.039 2.190 o
-14 6 6 0.406 0.472 0.211 401.110 o
-14 6 7 0.028 -0.030 0.321 173.420 o
-14 7 1 35.151 33.753 1.437 5.584 o
-14 7 2 33.568 35.823 0.683 11.282 o
-14 7 3 5.190 5.816 0.281 167.681 o
-13 1 1 3.067 3.205 0.321 159.204 o
-13 1 2 21.374 21.568 0.703 19.224 o
-13 1 3 29.062 29.966 0.713 13.476 o
-13 1 4 1.273 1.627 0.291 206.669 o
-13 1 5 7.632 7.263 0.352 101.065 o
-13 1 6 8.765 8.368 0.362 88.821 o
-13 1 7 0.071 -0.060 0.402 110.987 o
-13 1 8 0.410 0.432 0.281 226.034 o
-13 1 9 0.003 0.191 0.261 262.680 o
-13 1 10 45.141 45.306 1.507 4.251 o
-13 1 11 0.805 0.573 0.482 76.909 o
-13 1 12 53.668 55.864 1.668 3.201 o
-13 1 13 0.004 0.000 0.301 197.314 o
-13 2 1 54.792 56.055 0.914 4.793 o
-13 2 2 132.669 140.137 3.405 0.618 o
-13 2 3 5.731 5.475 0.342 121.898 o
-13 2 4 3.042 2.793 0.301 180.724 o
-13 2 5 11.688 10.940 0.392 64.438 o
-13 2 6 2.993 2.893 0.281 204.904 o
-13 2 7 12.785 12.828 0.442 50.998 o
-13 2 8 20.999 21.066 0.583 23.570 o
-13 2 9 30.057 31.001 0.703 13.052 o
-13 2 10 19.413 19.599 1.045 12.336 o
-13 2 11 0.218 0.522 0.502 71.006 o
-13 2 12 26.686 29.002 0.613 16.388 o
-13 2 13 0.113 0.261 0.211 402.454 o
-13 3 1 23.529 24.009 0.995 11.763 o
-13 3 2 14.769 14.456 0.442 44.782 o
-13 3 3 52.914 53.593 0.874 5.190 o
-13 3 4 17.600 17.972 0.482 33.705 o
-13 3 5 125.009 127.931 2.180 0.902 o
-13 3 6 10.078 9.855 0.372 76.761 o
-13 3 7 0.053 -0.020 0.412 105.640 o
-13 3 8 1.304 1.607 0.362 135.082 o
-13 3 9 12.980 13.220 0.462 47.665 o
-13 3 10 34.815 36.827 0.633 11.202 o
-13 3 11 3.559 3.305 0.271 210.678 o
-13 3 12 0.524 0.502 0.221 365.005 o
-13 3 13 0.212 0.462 0.211 401.930 o
-13 4 1 15.451 15.661 0.452 41.313 o
-13 4 2 0.078 0.201 0.261 262.644 o
-13 4 3 5.526 5.907 0.482 68.155 o
-13 4 4 8.150 7.645 0.352 97.243 o
-13 4 5 20.690 20.222 0.904 14.702 o
-13 4 6 2.242 2.341 0.281 213.222 o
-13 4 7 100.171 101.732 1.678 1.437 o
-13 4 8 7.575 7.404 0.382 89.806 o
-13 4 9 2.309 2.260 0.231 306.915 o
-13 4 10 27.799 28.791 0.542 17.102 o
-13 4 11 1.429 1.216 0.221 354.179 o
-13 4 12 0.199 0.030 0.201 443.742 o
-13 5 1 40.967 42.342 1.065 6.474 o
-13 5 2 15.248 15.209 0.432 43.962 o
-13 5 3 74.245 75.563 1.587 2.288 o
-13 5 4 2.262 1.959 0.271 229.713 o
-13 5 5 47.994 49.153 0.794 6.268 o
-13 5 6 1.847 1.396 0.251 272.298 o
-13 5 7 2.797 3.255 0.241 269.844 o
-13 5 8 12.382 13.592 0.904 18.416 o
-13 5 9 5.844 6.037 0.271 167.778 o
-13 5 10 3.762 3.918 0.241 248.972 o
-13 5 11 0.046 -0.010 0.281 226.505 o
-13 6 1 22.884 24.732 0.784 15.721 o
-13 6 2 13.859 13.170 0.402 52.962 o
-13 6 3 0.879 0.743 0.241 304.830 o
-13 6 4 31.450 30.800 0.653 13.221 o
-13 6 5 18.470 18.092 0.442 34.740 o
-13 6 6 0.811 1.095 0.191 481.584 o
-13 6 7 30.940 31.805 0.914 10.157 o
-13 6 8 21.899 22.000 0.563 23.135 o
-13 6 9 0.049 0.010 0.181 548.073 o
-13 6 10 6.680 7.072 0.311 126.954 o
-13 7 1 11.555 11.502 0.362 69.578 o
-13 7 2 0.028 0.241 0.231 335.635 o
-13 7 3 27.640 27.716 0.844 12.437 o
-13 7 4 0.467 0.442 0.221 365.408 o
-13 7 5 0.849 0.864 0.181 536.700 o
-13 7 6 0.989 0.874 0.211 395.037 o
-13 7 7 0.476 0.402 0.181 544.866 o
-13 7 8 29.732 31.151 0.844 11.335 o
-13 7 9 0.501 0.201 0.201 442.280 o
-13 8 1 0.474 0.422 0.241 307.252 o
-13 8 2 1.948 1.818 0.231 315.285 o
-13 8 3 0.005 -0.060 0.362 137.023 o
-13 8 4 37.221 40.012 0.814 8.749 o
-13 8 5 0.192 0.181 0.171 613.761 o
-13 8 6 8.730 9.312 0.492 56.329 o
-13 8 7 11.070 11.191 0.301 86.001 o
-12 0 2 293.707 305.377 5.334 0.159 o
-12 0 4 5.388 5.184 0.321 137.546 o
-12 0 6 56.205 57.361 0.924 4.590 o
-12 0 8 182.034 188.848 3.898 0.377 o
-12 0 10 76.344 75.071 1.929 1.946 o
-12 0 12 23.410 23.828 1.015 11.505 o
-12 0 14 9.357 9.965 0.372 79.579 o
-12 1 1 0.441 0.563 0.191 488.955 o
-12 1 2 4.334 4.802 0.281 182.270 o
-12 1 3 7.352 7.645 0.261 148.017 o
-12 1 4 259.113 267.214 3.576 0.230 o
-12 1 5 2.062 2.089 0.201 403.161 o
-12 1 6 194.739 198.060 2.150 0.435 o
-12 1 7 17.195 16.163 0.352 45.478 o
-12 1 8 0.288 0.121 0.191 491.224 o
-12 1 9 13.368 12.678 0.382 57.790 o
-12 1 10 21.021 20.563 0.693 20.019 o
-12 1 11 0.529 0.774 0.251 282.540 o
-12 1 12 16.660 17.670 0.492 34.634 o
-12 1 13 9.089 8.649 0.673 33.866 o
-12 1 14 29.110 31.342 0.743 12.787 o
-12 1 15 0.623 0.432 0.181 543.148 o
-12 2 1 115.486 117.212 1.386 1.215 o
-12 2 2 87.089 87.628 1.125 2.104 o
-12 2 3 70.464 70.329 1.065 3.060 o
-12 2 4 1.722 1.678 0.221 347.172 o
-12 2 5 0.081 0.020 0.211 402.649 o
-12 2 6 6.668 6.540 0.271 155.337 o
-12 2 7 30.059 29.484 0.603 14.775 o
-12 2 8 228.828 238.895 3.847 0.271 o
-12 2 9 5.652 5.254 0.291 157.360 o
-12 2 10 12.170 12.135 0.663 30.878 o
-12 2 11 16.151 16.927 0.492 35.932 o
-12 2 12 11.326 11.201 0.402 63.383 o
-12 2 13 15.025 16.676 0.653 27.260 o
-12 2 14 0.004 0.141 0.221 366.888 o
-12 2 15 7.950 8.197 0.332 104.592 o
-12 3 1 1.708 1.738 0.231 318.908 o
-12 3 2 5.952 6.037 0.271 166.497 o
-12 3 3 1.536 1.617 0.221 350.222 o
-12 3 4 28.444 27.967 0.563 16.618 o
-12 3 5 20.799 19.991 0.442 30.030 o
-12 3 6 67.670 67.025 1.688 2.495 o
-12 3 7 28.674 28.891 0.804 12.507 o
-12 3 8 14.345 14.436 0.412 48.903 o
-12 3 9 32.543 34.346 0.633 12.387 o
-12 3 10 22.690 22.814 0.492 24.402 o
-12 3 11 64.192 66.191 2.391 1.843 o
-12 3 12 2.654 2.752 0.311 172.557 o
-12 3 13 14.690 14.667 1.195 10.965 o
-12 3 14 1.549 1.688 0.281 219.777 o
-12 4 1 80.013 79.049 1.165 2.420 o
-12 4 2 39.056 38.093 0.944 7.722 o
-12 4 3 139.743 140.096 2.079 0.781 o
-12 4 4 15.292 15.490 0.452 41.774 o
-12 4 5 18.968 18.896 0.482 31.205 o
-12 4 6 0.002 0.111 0.251 284.125 o
-12 4 7 9.652 9.312 0.311 97.592 o
-12 4 8 30.629 31.704 0.854 10.903 o
-12 4 9 27.215 26.621 0.613 16.738 o
-12 4 10 4.813 4.882 0.281 176.751 o
-12 4 11 5.850 6.670 0.332 123.076 o
-12 4 12 15.526 15.852 0.462 40.150 o
-12 4 13 79.298 84.042 3.074 1.143 o
-12 4 14 1.697 1.326 0.241 296.287 o
-12 5 1 22.101 21.578 0.573 22.807 o
-12 5 2 19.015 18.504 0.482 31.400 o
-12 5 3 19.143 19.047 0.482 30.879 o
-12 5 4 1.443 1.527 0.271 236.961 o
-12 5 5 12.377 12.105 0.342 68.812 o
-12 5 6 7.107 6.811 0.281 142.345 o
-12 5 7 0.941 0.703 0.221 361.668 o
-12 5 8 6.226 6.349 0.321 127.334 o
-12 5 9 74.498 78.105 1.115 2.674 o
-12 5 10 5.915 6.158 0.291 150.460 o
-12 5 11 69.912 71.495 3.436 1.084 o
-12 5 12 2.698 2.471 0.422 97.097 o
-12 5 13 5.887 5.816 0.291 152.375 o
-12 6 1 101.502 102.395 1.798 1.368 o
-12 6 2 3.308 3.104 0.281 201.096 o
-12 6 3 11.993 11.995 0.563 39.520 o
-12 6 4 0.660 0.683 0.191 486.251 o
-12 6 5 7.601 7.293 0.271 140.981 o
-12 6 6 49.290 50.791 1.276 4.493 o
-12 6 7 49.835 50.971 1.316 4.336 o
-12 6 8 5.083 5.033 0.271 182.838 o
-12 6 9 0.968 0.532 0.201 436.976 o
-12 6 10 15.059 14.616 0.392 49.065 o
-12 6 11 0.206 0.392 0.191 490.996 o
-12 6 12 0.263 -0.010 0.392 116.731 o
-12 7 1 10.291 9.393 0.442 61.699 o
-12 7 2 42.236 43.096 0.784 7.671 o
-12 7 3 8.486 8.278 0.281 122.254 o
-12 7 4 76.525 76.919 1.246 2.507 o
-12 7 5 0.015 0.010 0.181 548.091 o
-12 7 6 9.676 8.649 0.311 99.588 o
-12 7 7 3.821 3.476 0.241 251.665 o
-12 7 8 0.055 0.131 0.191 491.835 o
-12 7 9 26.032 26.581 0.502 19.763 o
-12 7 10 3.582 3.355 0.221 295.956 o
-12 7 11 29.164 29.484 0.512 16.617 o
-12 8 1 0.002 0.432 0.362 137.002 o
-12 8 2 8.092 8.559 0.281 124.532 o
-12 8 3 1.263 1.316 0.191 471.690 o
-12 8 4 6.749 6.058 0.301 136.498 o
-12 8 5 0.236 0.241 0.251 283.889 o
-12 8 6 105.115 107.267 2.521 1.053 o
-12 8 7 8.386 7.956 0.512 54.772 o
-12 8 8 20.874 20.764 0.532 25.712 o
-12 8 9 9.016 8.679 0.362 86.871 o
-12 8 10 19.034 18.856 0.794 18.424 o
-12 9 1 0.481 0.442 0.261 261.894 o
-12 9 2 27.409 29.544 1.085 9.284 o
-12 9 3 10.339 10.849 0.512 48.743 o
-12 9 4 58.501 62.293 1.055 3.970 o
-12 9 5 0.229 0.332 0.231 335.281 o
-12 9 6 27.809 27.887 1.155 8.647 o
-12 9 7 10.591 9.774 0.593 39.588 o
-12 9 8 2.426 2.722 0.542 59.668 o
-12 10 1 19.491 19.689 0.492 29.545 o
-12 10 2 1.114 1.296 0.261 257.730 o
-12 10 3 1.662 1.487 0.221 349.393 o
-12 10 4 16.650 15.772 1.135 11.611 o
-12 10 5 18.002 19.569 1.005 13.414 o
-11 1 1 42.783 42.433 0.633 8.397 o
-11 1 2 36.334 35.240 0.492 12.154 o
-11 1 3 0.026 0.181 0.181 547.997 o
-11 1 4 65.531 66.773 0.964 3.533 o
-11 1 5 54.344 53.764 0.703 5.452 o
-11 1 6 176.090 176.341 2.029 0.532 o
-11 1 7 0.140 -0.181 0.432 96.038 o
-11 1 8 108.042 107.046 1.175 1.442 o
-11 1 9 23.489 22.643 0.372 27.526 o
-11 1 10 38.570 37.450 1.658 4.332 o
-11 1 11 2.088 1.748 0.191 446.401 o
-11 1 12 7.864 7.976 0.271 134.720 o
-11 1 13 4.045 3.667 0.261 216.319 o
-11 1 14 0.943 0.934 0.181 534.336 o
-11 1 15 15.797 16.133 0.462 39.422 o
-11 1 16 0.081 0.000 0.211 402.656 o
-11 2 1 4.782 4.430 0.261 201.482 o
-11 2 2 102.063 102.003 1.205 1.576 o
-11 2 3 0.698 0.673 0.221 363.533 o
-11 2 4 156.153 157.807 1.929 0.661 o
-11 2 5 103.276 101.843 1.537 1.442 o
-11 2 6 2.963 2.672 0.231 292.790 o
-11 2 7 46.792 45.999 0.653 7.203 o
-11 2 8 5.120 5.073 0.241 216.063 o
-11 2 9 12.890 12.858 0.321 68.577 o
-11 2 10 45.492 46.451 1.507 4.198 o
-11 2 11 21.551 21.186 0.563 23.773 o
-11 2 12 1.560 1.778 0.281 219.465 o
-11 2 13 1.466 1.296 0.221 353.221 o
-11 2 14 11.021 12.306 0.362 70.103 o
-11 2 15 2.699 2.943 0.241 273.642 o
-11 2 16 3.688 4.139 0.241 248.355 o
-11 3 1 187.934 185.101 2.089 0.476 o
-11 3 2 5.744 5.093 0.261 184.161 o
-11 3 3 122.025 122.617 1.416 1.104 o
-11 3 4 10.710 10.478 0.321 84.929 o
-11 3 5 50.995 49.244 0.693 6.178 o
-11 3 6 94.029 94.278 1.326 1.758 o
-11 3 7 1.866 1.899 0.271 232.974 o
-11 3 8 4.388 4.079 0.231 252.877 o
-11 3 9 12.943 12.396 0.422 53.801 o
-11 3 10 8.553 8.529 0.342 96.249 o
-11 3 11 17.314 17.238 0.512 32.752 o
-11 3 12 1.649 1.577 0.261 253.356 o
-11 3 13 8.120 8.910 0.583 44.094 o
-11 3 14 0.264 0.281 0.201 443.195 o
-11 3 15 30.933 32.930 0.703 12.398 o
-11 3 16 0.368 0.301 0.221 366.051 o
-11 4 1 28.318 27.354 0.482 18.305 o
-11 4 2 2.669 2.572 0.342 145.367 o
-11 4 3 18.464 17.218 0.382 39.303 o
-11 4 4 8.247 7.936 0.281 125.959 o
-11 4 5 153.134 154.663 2.059 0.671 o
-11 4 6 0.818 0.633 0.161 679.359 o
-11 4 7 53.347 53.905 0.723 5.510 o
-11 4 8 0.106 0.221 0.221 366.757 o
-11 4 9 60.273 61.339 0.934 4.098 o
-11 4 10 19.005 18.373 0.492 30.967 o
-11 4 11 16.875 16.264 0.492 35.348 o
-11 4 12 10.418 10.719 0.402 67.162 o
-11 4 13 2.045 1.758 0.261 249.464 o
-11 4 14 0.110 0.040 0.221 366.851 o
-11 4 15 0.018 -0.040 0.311 184.789 o
-11 5 1 121.063 122.034 1.597 1.081 o
-11 5 2 5.417 4.952 0.261 189.459 o
-11 5 3 159.243 161.765 1.959 0.635 o
-11 5 4 7.959 8.057 0.241 150.653 o
-11 5 5 48.327 46.913 0.753 6.520 o
-11 5 6 0.939 0.824 0.171 598.607 o
-11 5 7 0.847 0.763 0.211 396.979 o
-11 5 8 41.750 41.137 1.025 6.653 o
-11 5 9 1.725 1.718 0.291 204.353 o
-11 5 10 4.808 4.681 0.281 177.876 o
-11 5 11 16.105 16.344 0.482 37.181 o
-11 5 12 14.578 13.752 0.442 45.928 o
-11 5 13 10.034 10.086 0.382 74.073 o
-11 5 14 0.084 0.231 0.251 284.056 o
-11 5 15 17.288 17.721 0.553 30.135 o
-11 6 1 11.232 10.658 0.482 51.407 o
-11 6 2 38.575 36.908 0.573 10.514 o
-11 6 3 0.075 0.191 0.151 788.825 o
-11 6 4 9.418 8.730 0.311 101.023 o
-11 6 5 24.047 21.598 0.482 24.008 o
-11 6 6 24.286 24.120 0.512 21.811 o
-11 6 7 120.393 123.622 1.668 1.065 o
-11 6 8 5.777 5.716 0.372 105.593 o
-11 6 9 7.052 6.369 0.291 138.682 o
-11 6 10 0.320 0.080 0.201 443.353 o
-11 6 11 0.050 0.181 0.201 443.864 o
-11 6 12 25.951 26.370 0.633 17.087 o
-11 6 13 30.067 30.067 0.623 14.349 o
-11 6 14 4.247 4.551 0.362 120.441 o
-11 7 1 20.188 20.383 0.422 31.514 o
-11 7 2 4.912 5.153 0.261 194.880 o
-11 7 3 35.131 33.874 0.964 8.626 o
-11 7 4 72.843 71.304 2.210 1.816 o
-11 7 5 31.028 30.267 0.723 12.575 o
-11 7 6 7.283 6.881 0.301 128.468 o
-11 7 7 9.666 9.383 0.332 90.898 o
-11 7 8 37.627 36.325 1.437 5.300 o
-11 7 9 0.001 -0.020 0.382 122.979 o
-11 7 10 40.225 41.981 0.683 8.730 o
-11 7 11 0.163 0.311 0.201 443.484 o
-11 7 12 0.647 0.774 0.211 398.629 o
-11 7 13 3.600 3.536 0.643 42.112 o
-11 8 1 1.467 1.868 0.321 169.418 o
-11 8 2 134.620 135.676 3.064 0.670 o
-11 8 3 0.751 0.673 0.251 281.893 o
-11 8 4 9.008 9.413 0.452 63.108 o
-11 8 5 8.573 9.393 0.422 70.963 o
-11 8 6 31.408 31.051 1.276 7.000 o
-11 8 7 0.009 0.080 0.261 262.692 o
-11 8 8 0.404 0.804 0.261 261.641 o
-11 8 9 2.973 3.024 0.301 180.402 o
-11 8 10 11.410 12.286 0.442 55.008 o
-11 8 11 1.263 1.055 0.261 257.572 o
-11 8 12 17.425 18.373 1.035 13.077 o
-11 9 1 0.364 0.603 0.261 261.977 o
-11 9 2 1.503 1.758 0.301 192.230 o
-11 9 3 0.038 0.352 0.241 308.200 o
-11 9 4 33.311 34.065 0.743 11.026 o
-11 9 5 0.195 0.281 0.261 262.512 o
-11 9 6 25.066 23.025 1.115 9.903 o
-11 9 7 1.550 1.457 0.261 254.500 o
-11 9 8 30.591 32.287 1.306 6.814 o
-11 9 9 0.310 0.171 0.241 307.952 o
-11 9 10 12.926 14.496 0.442 48.745 o
-11 10 1 0.063 0.221 0.261 262.647 o
-11 10 2 49.145 48.862 1.537 3.851 o
-11 10 3 1.503 1.246 0.231 324.081 o
-11 10 4 6.613 6.861 0.352 107.749 o
-11 10 5 0.128 0.161 0.231 335.579 o
-11 10 6 25.165 25.928 1.165 9.082 o
-11 10 7 14.114 14.636 0.432 47.033 o
-11 10 8 6.258 6.017 0.311 134.408 o
-11 11 1 1.599 1.728 0.261 253.164 o
-11 11 2 0.046 0.161 0.311 184.776 o
-11 11 3 42.638 44.803 2.059 2.971 o
-11 11 4 4.439 3.908 0.442 84.265 o
-11 11 5 0.023 -0.201 0.532 63.219 o
-10 0 2 26.767 25.104 0.542 18.891 o
-10 0 4 161.456 159.796 1.979 0.627 o
-10 0 6 199.606 198.853 2.461 0.408 o
-10 0 8 8.341 8.057 0.271 129.551 o
-10 0 10 25.572 25.134 0.563 19.225 o
-10 0 12 59.192 55.482 1.607 3.099 o
-10 0 14 39.222 38.445 1.155 6.445 o
-10 0 16 20.656 22.452 0.553 24.365 o
-10 1 1 6.087 6.198 0.241 190.956 o
-10 1 2 435.592 439.245 4.641 0.088 o
-10 1 3 0.834 0.713 0.181 538.216 o
-10 1 4 4.290 4.259 0.211 289.286 o
-10 1 5 6.360 6.118 0.231 197.075 o
-10 1 6 21.247 20.935 0.362 32.202 o
-10 1 7 21.066 20.212 0.321 34.822 o
-10 1 8 31.022 29.835 0.432 16.595 o
-10 1 9 19.854 19.077 0.452 31.438 o
-10 1 10 1.680 1.497 0.161 632.546 o
-10 1 11 10.242 9.815 0.281 101.669 o
-10 1 12 2.802 2.843 0.221 317.783 o
-10 1 13 1.192 1.426 0.201 427.669 o
-10 1 14 40.193 40.815 0.904 7.555 o
-10 1 15 1.444 1.165 0.412 104.569 o
-10 1 16 140.868 149.610 2.140 0.738 o
-10 1 17 0.144 0.020 0.221 366.830 o
-10 2 1 5.551 5.214 0.271 176.154 o
-10 2 2 1.350 1.416 0.221 353.919 o
-10 2 3 64.979 63.880 0.884 3.767 o
-10 2 4 65.134 62.243 0.864 3.839 o
-10 2 5 52.068 50.730 0.944 5.225 o
-10 2 6 163.754 162.558 2.170 0.595 o
-10 2 7 0.348 0.251 0.171 612.474 o
-10 2 8 3.361 3.195 0.211 326.373 o
-10 2 9 3.121 3.094 0.221 308.621 o
-10 2 10 16.412 16.153 0.422 41.498 o
-10 2 11 44.818 44.020 0.894 6.663 o
-10 2 12 59.094 58.737 1.487 3.245 o
-10 2 13 75.294 78.838 1.959 1.905 o
-10 2 14 18.293 17.389 0.432 36.212 o
-10 2 15 0.418 0.291 0.211 401.466 o
-10 2 16 8.252 8.740 0.311 109.002 o
-10 2 17 0.853 0.623 0.201 437.737 o
-10 3 1 19.371 18.253 0.402 35.471 o
-10 3 2 58.833 56.326 0.753 4.752 o
-10 3 3 85.900 82.927 1.085 2.228 o
-10 3 4 30.588 29.605 0.492 16.082 o
-10 3 5 2.533 2.531 0.191 421.274 o
-10 3 6 2.649 2.803 0.201 378.803 o
-10 3 7 117.289 119.292 1.356 1.188 o
-10 3 8 20.674 20.312 0.553 25.327 o
-10 3 9 235.496 242.170 2.773 0.291 o
-10 3 10 85.064 86.433 2.110 1.570 o
-10 3 11 10.425 9.131 0.753 27.039 o
-10 3 12 16.314 16.033 0.422 41.815 o
-10 3 13 2.183 2.501 0.241 283.926 o
-10 3 14 7.122 7.042 0.301 129.142 o
-10 3 15 0.340 0.301 0.221 366.140 o
-10 3 16 26.096 26.711 0.703 15.539 o
-10 3 17 9.783 10.025 0.703 30.522 o
-10 4 1 186.023 183.604 2.029 0.487 o
-10 4 2 37.339 35.702 0.733 9.809 o
-10 4 3 6.586 6.138 0.221 202.957 o
-10 4 4 2.236 2.170 0.191 436.029 o
-10 4 5 44.634 43.739 0.763 7.300 o
-10 4 6 6.047 5.867 0.221 215.971 o
-10 4 7 99.700 100.356 1.195 1.638 o
-10 4 8 0.002 0.070 0.181 548.083 o
-10 4 9 11.812 12.216 0.311 76.945 o
-10 4 10 0.018 0.221 0.191 491.824 o
-10 4 11 98.189 104.143 2.361 1.184 o
-10 4 12 0.261 0.221 0.241 307.993 o
-10 4 13 37.823 37.701 0.774 9.153 o
-10 4 14 45.565 47.335 0.884 6.377 o
-10 4 15 13.312 13.320 0.442 49.204 o
-10 4 16 1.708 1.537 0.211 380.481 o
-10 5 1 16.022 15.119 0.362 48.943 o
-10 5 2 2.828 3.024 0.201 370.729 o
-10 5 3 9.755 9.865 0.332 89.068 o
-10 5 4 57.050 56.205 0.703 5.029 o
-10 5 5 3.658 3.556 0.201 338.939 o
-10 5 6 4.339 4.058 0.211 290.599 o
-10 5 7 71.225 71.093 0.884 3.196 o
-10 5 8 0.170 -0.010 0.422 100.663 o
-10 5 9 130.550 131.407 1.517 0.963 o
-10 5 10 34.977 34.065 0.633 11.595 o
-10 5 11 76.941 80.988 2.069 1.771 o
-10 5 12 3.320 3.586 0.311 165.862 o
-10 5 13 6.922 7.152 0.352 105.249 o
-10 5 14 4.574 4.772 0.311 152.542 o
-10 5 15 5.091 5.173 0.261 192.343 o
-10 5 16 4.529 4.239 0.231 248.580 o
-10 6 1 30.144 29.755 0.512 15.995 o
-10 6 2 2.868 2.752 0.191 406.781 o
-10 6 3 0.042 0.502 0.161 692.704 o
-10 6 4 58.854 56.768 0.884 4.477 o
-10 6 5 33.326 33.010 0.763 10.968 o
-10 6 6 67.990 67.718 1.045 3.269 o
-10 6 7 54.560 53.503 1.035 4.632 o
-10 6 8 27.768 27.244 0.603 16.465 o
-10 6 9 0.430 0.221 0.281 226.154 o
-10 6 10 2.992 3.014 0.251 250.155 o
-10 6 11 47.074 48.360 0.784 6.486 o
-10 6 12 5.172 4.812 0.311 147.758 o
-10 6 13 28.863 30.227 0.713 13.502 o
-10 6 14 7.287 7.836 0.352 101.384 o
-10 6 15 2.600 2.341 0.241 279.385 o
-10 7 1 10.721 9.895 0.251 107.318 o
-10 7 2 106.257 106.444 1.637 1.333 o
-10 7 3 3.814 3.536 0.241 251.283 o
-10 7 4 82.825 83.901 1.668 1.912 o
-10 7 5 0.491 0.442 0.161 687.968 o
-10 7 6 2.932 2.953 0.211 339.851 o
-10 7 7 5.667 5.204 0.291 157.464 o
-10 7 8 0.026 -0.010 0.352 144.965 o
-10 7 9 18.192 18.172 0.794 18.968 o
-10 7 10 32.814 31.423 0.583 13.412 o
-10 7 11 71.019 71.033 1.075 3.007 o
-10 7 12 3.594 4.340 0.291 181.147 o
-10 7 13 4.216 4.450 0.291 174.955 o
-10 7 14 25.289 26.490 1.226 8.411 o
-10 8 1 0.835 0.944 0.271 241.227 o
-10 8 2 17.638 17.721 1.376 8.178 o
-10 8 3 24.921 24.793 0.583 19.292 o
-10 8 4 70.647 72.620 2.029 2.000 o
-10 8 5 0.411 0.392 0.301 196.976 o
-10 8 6 29.456 31.302 0.733 12.810 o
-10 8 7 53.061 53.845 1.015 4.795 o
-10 8 8 89.128 94.148 4.169 0.710 o
-10 8 9 7.186 7.584 0.382 91.088 o
-10 8 10 0.228 0.271 0.261 262.480 o
-10 8 11 8.188 7.474 0.372 90.351 o
-10 8 12 6.218 5.495 0.733 31.341 o
-10 8 13 0.033 -0.080 0.553 58.705 o
-10 9 1 4.982 5.093 0.311 148.139 o
-10 9 2 47.429 51.002 1.266 4.651 o
-10 9 3 1.568 1.889 0.281 219.107 o
-10 9 4 125.772 131.357 1.778 0.960 o
-10 9 5 102.412 111.436 1.798 1.297 o
-10 9 6 9.068 9.413 0.492 55.549 o
-10 9 7 1.470 1.537 0.281 220.593 o
-10 9 8 4.880 4.711 0.553 54.732 o
-10 9 9 0.998 1.105 0.261 258.836 o
-10 9 10 0.229 0.111 0.241 308.121 o
-10 9 11 0.036 -0.040 0.553 58.705 o
-10 9 12 1.465 1.678 0.271 236.379 o
-10 10 1 49.749 51.554 1.838 3.093 o
-10 10 2 3.913 4.370 0.291 178.121 o
-10 10 3 26.287 26.832 0.542 18.638 o
-10 10 4 48.671 51.373 2.843 1.719 o
-10 10 5 2.846 2.481 0.301 183.063 o
-10 10 6 30.583 32.819 0.713 12.415 o
-10 10 7 0.013 -0.161 0.332 163.069 o
-10 10 8 0.636 0.934 0.241 305.596 o
-10 10 9 23.614 24.652 0.623 19.173 o
-10 10 10 2.274 1.818 0.251 266.036 o
-10 11 1 0.011 0.050 0.261 262.694 o
-10 11 2 8.764 9.192 0.321 100.181 o
-10 11 3 2.871 3.205 0.301 180.481 o
-10 11 4 18.890 19.147 0.563 27.178 o
-10 11 5 33.970 35.320 1.115 7.556 o
-10 11 6 3.139 3.195 0.281 202.238 o
-10 11 7 22.432 22.402 1.175 9.634 o
-10 11 8 0.005 -0.100 0.553 58.705 o
-10 12 1 45.070 46.883 0.844 6.640 o
-10 12 2 0.950 0.964 0.241 303.763 o
-10 12 3 16.848 17.741 0.944 15.295 o
-10 12 4 7.122 7.896 0.332 110.783 o
-10 12 5 5.892 6.600 0.311 135.004 o
-9 1 1 81.192 79.551 1.145 2.388 o
-9 1 2 51.200 50.761 0.653 6.161 o
-9 1 3 162.777 162.659 1.607 0.644 o
-9 1 4 153.865 152.402 1.507 0.726 o
-9 1 5 7.140 6.399 0.211 199.658 o
-9 1 6 20.299 18.785 0.311 38.118 o
-9 1 7 0.811 0.874 0.151 766.988 o
-9 1 8 548.084 556.247 5.796 0.056 o
-9 1 9 5.212 5.284 0.201 269.575 o
-9 1 10 94.146 93.324 1.045 1.890 o
-9 1 11 52.052 51.283 0.643 6.037 o
-9 1 12 2.975 2.853 0.171 479.603 o
-9 1 13 0.025 0.020 0.171 614.461 o
-9 1 14 59.342 62.012 1.718 2.797 o
-9 1 15 0.784 0.703 0.181 539.088 o
-9 1 16 7.318 7.514 0.261 149.174 o
-9 1 17 7.495 7.755 0.271 139.663 o
-9 1 18 20.135 21.116 0.382 32.914 o
-9 2 1 33.340 32.126 0.522 13.722 o
-9 2 2 149.421 146.968 1.587 0.761 o
-9 2 3 5.859 5.445 0.261 180.306 o
-9 2 4 43.088 40.635 0.623 8.576 o
-9 2 5 361.399 357.022 4.219 0.127 o
-9 2 6 21.325 20.232 0.352 33.061 o
-9 2 7 148.899 148.213 1.848 0.732 o
-9 2 8 16.591 16.194 0.382 44.390 o
-9 2 9 9.834 9.764 0.321 91.898 o
-9 2 10 100.851 102.717 1.175 1.602 o
-9 2 11 9.704 8.981 0.352 85.785 o
-9 2 12 153.736 154.311 2.230 0.651 o
-9 2 13 0.726 1.005 0.241 304.951 o
-9 2 14 15.173 15.149 0.422 45.136 o
-9 2 15 11.865 12.567 0.603 35.648 o
-9 2 16 0.164 -0.301 0.402 110.981 o
-9 2 17 2.317 2.572 0.241 281.683 o
-9 2 18 0.031 0.040 0.191 491.903 o
-9 3 1 318.093 314.016 3.526 0.166 o
-9 3 2 16.121 15.249 0.382 46.621 o
-9 3 3 385.205 388.284 4.832 0.108 o
-9 3 4 77.251 74.087 1.025 2.724 o
-9 3 5 66.210 64.352 0.723 3.879 o
-9 3 6 0.946 0.934 0.171 597.154 o
-9 3 7 6.968 7.142 0.261 155.511 o
-9 3 8 111.755 111.537 1.406 1.293 o
-9 3 9 144.418 148.685 2.300 0.701 o
-9 3 10 42.045 40.846 0.763 8.020 o
-9 3 11 49.751 50.047 0.954 5.468 o
-9 3 12 8.782 8.700 0.342 94.493 o
-9 3 13 21.622 20.835 0.482 26.868 o
-9 3 14 53.260 56.979 1.718 3.101 o
-9 3 15 20.852 21.588 0.713 19.216 o
-9 3 16 0.151 -0.241 0.352 144.954 o
-9 3 17 2.459 2.089 0.221 331.632 o
-9 4 1 16.019 16.174 0.342 49.421 o
-9 4 2 7.764 7.333 0.241 157.980 o
-9 4 3 15.335 14.305 0.301 58.781 o
-9 4 4 4.538 4.300 0.211 282.505 o
-9 4 5 394.308 390.423 4.229 0.109 o
-9 4 6 24.679 23.607 0.382 25.272 o
-9 4 7 486.966 494.295 6.459 0.066 o
-9 4 8 22.303 21.186 0.422 28.174 o
-9 4 9 20.458 20.423 0.402 32.024 o
-9 4 10 26.398 25.908 0.482 20.181 o
-9 4 11 0.148 -0.020 0.402 110.983 o
-9 4 12 4.720 4.852 0.301 159.385 o
-9 4 13 4.572 4.209 0.281 182.895 o
-9 4 14 0.090 -0.221 0.382 122.977 o
-9 4 15 22.640 23.406 0.924 13.241 o
-9 4 16 0.407 0.342 0.201 442.405 o
-9 4 17 12.323 12.617 0.703 27.939 o
-9 5 1 116.111 112.129 1.577 1.192 o
-9 5 2 38.006 37.109 0.532 10.944 o
-9 5 3 565.985 576.207 6.650 0.051 o
-9 5 4 42.483 40.896 0.532 9.144 o
-9 5 5 129.206 128.735 1.567 0.978 o
-9 5 6 4.380 4.169 0.231 252.150 o
-9 5 7 47.048 46.823 0.643 7.126 o
-9 5 8 3.848 3.637 0.251 233.770 o
-9 5 9 98.132 99.813 1.276 1.643 o
-9 5 10 36.131 35.150 0.542 11.828 o
-9 5 11 23.474 22.924 0.502 23.306 o
-9 5 12 38.578 38.264 1.889 3.601 o
-9 5 13 55.424 56.095 1.125 4.252 o
-9 5 14 9.004 8.348 0.442 66.651 o
-9 5 15 6.526 6.198 0.281 151.449 o
-9 5 16 0.002 -0.010 0.342 153.618 o
-9 5 17 1.422 0.854 0.532 62.898 o
-9 6 1 215.108 212.124 3.174 0.333 o
-9 6 2 45.448 44.532 0.653 7.570 o
-9 6 3 50.697 49.917 0.683 6.202 o
-9 6 4 5.478 4.922 0.211 251.758 o
-9 6 5 260.051 257.178 3.094 0.244 o
-9 6 6 0.000 0.131 0.201 443.936 o
-9 6 7 99.524 100.346 1.216 1.635 o
-9 6 8 7.147 7.313 0.251 159.325 o
-9 6 9 87.787 89.004 1.477 1.869 o
-9 6 10 17.857 17.248 0.442 36.410 o
-9 6 11 0.402 0.392 0.221 365.771 o
-9 6 12 11.654 11.713 0.492 48.163 o
-9 6 13 4.753 4.490 0.311 152.244 o
-9 6 14 5.208 4.983 0.482 69.567 o
-9 6 15 1.050 0.954 0.301 195.192 o
-9 6 16 4.025 4.279 0.321 150.063 o
-9 7 1 4.699 4.521 0.261 201.996 o
-9 7 2 108.598 105.258 1.858 1.240 o
-9 7 3 283.435 283.960 3.978 0.194 o
-9 7 4 2.066 1.828 0.191 445.912 o
-9 7 5 55.340 53.543 0.964 4.736 o
-9 7 6 152.850 155.366 2.773 0.594 o
-9 7 7 10.294 10.538 0.291 95.636 o
-9 7 8 22.460 22.060 0.432 27.098 o
-9 7 9 35.316 34.426 0.703 10.780 o
-9 7 10 25.060 25.044 0.643 17.723 o
-9 7 11 2.716 2.451 0.241 276.962 o
-9 7 12 0.097 0.362 0.241 308.130 o
-9 7 13 11.822 12.577 0.432 55.068 o
-9 7 14 0.610 0.522 0.311 184.179 o
-9 7 15 0.949 0.844 0.593 50.899 o
-9 8 1 51.517 51.363 0.703 5.940 o
-9 8 2 57.134 55.763 0.904 4.623 o
-9 8 3 8.820 8.880 0.301 108.449 o
-9 8 4 0.799 0.643 0.191 484.849 o
-9 8 5 28.425 29.022 0.573 16.171 o
-9 8 6 23.384 23.447 0.512 22.853 o
-9 8 7 41.209 41.649 0.864 7.545 o
-9 8 8 1.420 1.577 0.412 104.371 o
-9 8 9 2.341 1.718 0.291 200.897 o
-9 8 10 49.414 50.389 1.547 3.773 o
-9 8 11 1.783 1.858 0.392 114.432 o
-9 8 12 28.326 28.771 1.276 7.467 o
-9 8 13 0.761 0.482 0.633 44.695 o
-9 8 14 14.261 14.727 0.964 15.888 o
-9 9 1 6.038 5.475 0.311 138.302 o
-9 9 2 51.872 47.908 0.995 5.236 o
-9 9 3 6.197 5.686 0.332 124.030 o
-9 9 4 4.126 4.340 0.362 121.442 o
-9 9 5 19.275 19.810 0.583 25.605 o
-9 9 6 78.964 83.369 1.406 2.202 o
-9 9 7 3.666 3.878 0.342 137.899 o
-9 9 8 21.630 20.634 1.095 10.988 o
-9 9 9 18.562 18.574 0.522 29.810 o
-9 9 10 59.357 61.118 1.075 3.915 o
-9 9 11 9.790 10.377 0.402 69.884 o
-9 9 12 0.297 0.362 0.251 283.697 o
-9 9 13 0.269 0.161 0.603 49.321 o
-9 10 1 13.505 13.652 0.412 52.005 o
-9 10 2 48.719 50.580 1.416 4.144 o
-9 10 3 59.492 63.097 1.426 3.233 o
-9 10 4 1.325 1.718 0.301 193.022 o
-9 10 5 0.231 -0.030 0.382 122.960 o
-9 10 6 1.285 1.296 0.281 222.069 o
-9 10 7 0.371 0.804 0.261 261.725 o
-9 10 8 18.917 19.117 0.522 29.088 o
-9 10 9 8.607 9.081 0.814 24.373 o
-9 10 10 22.365 22.884 0.964 12.676 o
-9 10 11 0.008 0.161 0.241 308.285 o
-9 10 12 49.332 52.609 0.884 5.595 o
-9 11 1 35.585 36.194 1.487 5.224 o
-9 11 2 28.767 29.805 0.573 15.788 o
-9 11 3 0.189 0.010 0.261 262.634 o
-9 11 4 0.363 0.412 0.261 262.170 o
-9 11 5 15.552 15.209 0.583 31.637 o
-9 11 6 1.015 1.316 0.261 258.212 o
-9 11 7 17.092 16.595 0.472 36.146 o
-9 11 8 20.835 21.699 0.532 25.298 o
-9 11 9 3.961 3.747 0.271 203.702 o
-9 11 10 36.527 37.078 0.693 10.159 o
-9 12 1 1.610 1.658 0.281 219.522 o
-9 12 2 5.532 6.047 0.352 115.915 o
-9 12 3 20.319 20.895 0.673 20.992 o
-9 12 4 1.079 0.954 0.251 279.588 o
-9 12 5 25.195 26.601 0.763 14.809 o
-9 12 6 14.445 14.737 0.432 46.187 o
-9 12 7 16.462 16.304 0.442 39.664 o
-9 12 8 0.518 0.131 0.271 243.122 o
-9 13 1 38.184 41.398 1.457 4.993 o
-9 13 2 5.051 5.284 0.673 37.486 o
-9 13 3 18.263 19.820 1.035 12.741 o
-8 0 2 177.566 176.863 2.441 0.499 o
-8 0 4 218.386 217.257 2.652 0.343 o
-8 0 6 828.945 844.797 12.457 0.022 o
-8 0 8 7.859 7.273 0.402 82.433 o
-8 0 10 18.305 17.449 0.553 29.163 o
-8 0 12 23.192 20.995 0.723 17.857 o
-8 0 14 20.571 18.886 0.653 22.188 o
-8 0 16 55.912 58.425 1.286 3.796 o
-8 0 18 1.689 1.125 0.372 127.733 o
-8 1 1 0.667 0.482 0.211 399.544 o
-8 1 2 297.518 304.684 3.416 0.184 o
-8 1 3 225.841 228.829 2.361 0.328 o
-8 1 4 127.685 128.946 1.406 1.018 o
-8 1 5 11.961 11.583 0.311 77.790 o
-8 1 6 164.374 160.680 1.868 0.621 o
-8 1 7 7.894 7.494 0.191 191.065 o
-8 1 8 4.244 4.400 0.201 309.277 o
-8 1 9 64.456 62.876 0.713 4.072 o
-8 1 10 107.020 107.870 1.437 1.375 o
-8 1 11 11.027 10.066 0.261 101.026 o
-8 1 12 58.043 56.637 0.964 4.385 o
-8 1 13 2.195 2.049 0.171 534.135 o
-8 1 14 49.839 45.065 1.095 5.246 o
-8 1 15 5.402 4.963 0.311 145.361 o
-8 1 16 0.027 -0.211 0.362 137.023 o
-8 1 17 7.893 7.866 0.281 129.570 o
-8 1 18 2.946 2.863 0.301 181.135 o
-8 2 1 324.613 324.986 4.199 0.152 o
-8 2 2 280.024 281.941 2.833 0.216 o
-8 2 3 3.906 3.626 0.211 307.132 o
-8 2 4 182.739 181.273 1.868 0.510 o
-8 2 5 20.444 18.464 0.372 35.075 o
-8 2 6 146.734 143.934 1.386 0.808 o
-8 2 7 21.754 20.724 0.342 32.391 o
-8 2 8 42.559 42.583 0.593 8.628 o
-8 2 9 127.204 127.158 1.557 1.005 o
-8 2 10 21.097 19.278 0.342 34.694 o
-8 2 11 10.445 9.734 0.241 113.877 o
-8 2 12 3.158 3.215 0.181 423.574 o
-8 2 13 6.955 6.419 0.231 184.528 o
-8 2 14 1.771 1.668 0.221 346.535 o
-8 2 15 25.601 26.490 0.482 20.569 o
-8 2 16 28.277 29.193 0.522 17.052 o
-8 2 17 0.805 0.693 0.201 437.870 o
-8 2 18 0.663 0.342 0.211 400.035 o
-8 3 1 75.900 74.770 1.185 2.621 o
-8 3 2 12.557 12.236 0.442 52.249 o
-8 3 3 292.559 298.114 3.275 0.192 o
-8 3 4 17.813 17.168 0.342 43.538 o
-8 3 5 380.888 374.491 4.269 0.116 o
-8 3 6 11.743 11.131 0.281 87.026 o
-8 3 7 76.630 73.122 0.874 2.897 o
-8 3 8 3.929 4.109 0.211 300.403 o
-8 3 9 45.179 44.794 0.703 7.383 o
-8 3 10 38.440 37.631 0.693 9.593 o
-8 3 11 0.921 0.834 0.211 395.936 o
-8 3 12 4.456 4.651 0.241 230.964 o
-8 3 13 8.860 9.041 0.281 115.689 o
-8 3 14 39.816 40.072 0.713 8.850 o
-8 3 15 0.025 -0.211 0.553 58.705 o
-8 3 16 0.179 0.010 0.301 197.283 o
-8 3 17 2.030 2.180 0.332 157.176 o
-8 3 18 0.042 -0.221 0.342 153.617 o
-8 4 1 338.876 337.152 3.948 0.144 o
-8 4 2 6.221 5.947 0.251 181.288 o
-8 4 3 91.452 89.838 1.035 2.004 o
-8 4 4 21.100 20.714 0.442 29.176 o
-8 4 5 9.767 8.549 0.241 126.573 o
-8 4 6 1.297 1.406 0.181 521.103 o
-8 4 7 114.478 110.743 1.969 1.114 o
-8 4 8 17.851 17.188 0.563 29.259 o
-8 4 9 63.683 63.348 1.195 3.395 o
-8 4 10 18.004 16.616 0.362 42.283 o
-8 4 11 43.443 44.211 0.784 7.367 o
-8 4 12 4.895 5.153 0.241 219.186 o
-8 4 13 21.260 19.368 0.774 17.856 o
-8 4 14 3.175 3.124 0.281 202.232 o
-8 4 15 10.050 9.694 0.673 32.765 o
-8 4 16 1.132 0.824 0.221 359.484 o
-8 4 17 17.342 16.565 1.165 10.955 o
-8 4 18 0.248 0.020 0.201 443.647 o
-8 5 1 221.839 219.206 2.592 0.337 o
-8 5 2 170.491 166.737 1.688 0.595 o
-8 5 3 194.720 189.782 2.250 0.442 o
-8 5 4 38.610 36.677 0.482 11.164 o
-8 5 5 252.683 249.423 3.195 0.254 o
-8 5 6 13.404 13.009 0.392 55.782 o
-8 5 7 129.677 129.629 1.828 0.926 o
-8 5 8 0.019 0.291 0.171 614.230 o
-8 5 9 13.085 12.376 0.321 68.779 o
-8 5 10 26.037 25.295 0.583 18.420 o
-8 5 11 0.601 0.442 0.181 543.339 o
-8 5 12 31.000 31.724 0.563 14.383 o
-8 5 13 1.063 1.336 0.231 327.904 o
-8 5 14 3.488 3.375 0.261 225.253 o
-8 5 15 0.035 -0.181 0.362 137.023 o
-8 5 16 13.789 13.391 0.522 39.782 o
-8 5 17 1.421 1.316 0.211 386.776 o
-8 6 1 510.883 514.266 6.037 0.063 o
-8 6 2 18.524 17.329 0.382 39.076 o
-8 6 3 24.743 23.587 0.382 25.214 o
-8 6 4 72.990 70.581 1.075 2.929 o
-8 6 5 36.384 34.326 0.502 12.225 o
-8 6 6 29.678 29.233 0.472 17.012 o
-8 6 7 0.486 0.532 0.181 544.105 o
-8 6 8 95.564 94.891 1.396 1.690 o
-8 6 9 30.400 30.679 0.553 15.049 o
-8 6 10 0.582 0.814 0.181 541.245 o
-8 6 11 57.215 58.375 0.884 4.547 o
-8 6 12 1.746 1.808 0.251 271.342 o
-8 6 13 9.481 8.679 0.542 47.773 o
-8 6 14 9.544 9.483 0.402 72.305 o
-8 6 15 14.042 13.783 0.995 15.257 o
-8 6 16 15.580 16.515 0.964 15.310 o
-8 6 17 36.408 32.779 1.406 5.675 o
-8 7 1 128.099 128.604 2.049 0.902 o
-8 7 2 81.360 79.672 1.276 2.284 o
-8 7 3 71.505 70.390 1.135 2.934 o
-8 7 4 46.285 45.185 0.964 6.099 o
-8 7 5 22.930 23.165 0.512 23.375 o
-8 7 6 0.927 1.396 0.241 302.486 o
-8 7 7 30.870 30.197 0.643 13.703 o
-8 7 8 81.572 83.992 1.366 2.151 o
-8 7 9 0.687 0.743 0.181 540.259 o
-8 7 10 0.378 0.462 0.181 545.472 o
-8 7 11 11.355 11.332 0.372 68.719 o
-8 7 12 97.784 102.767 2.371 1.192 o
-8 7 13 19.968 18.605 2.652 2.423 o
-8 7 14 27.112 26.611 1.959 3.957 o
-8 7 15 2.301 1.959 0.291 200.403 o
-8 7 16 0.032 0.080 0.693 37.299 o
-8 8 1 21.844 21.427 0.412 28.984 o
-8 8 2 2.696 2.903 0.221 319.305 o
-8 8 3 0.129 0.161 0.191 491.668 o
-8 8 4 215.979 223.726 3.054 0.327 o
-8 8 5 1.532 1.376 0.241 297.625 o
-8 8 6 66.016 65.930 0.995 3.489 o
-8 8 7 22.506 22.984 0.673 19.019 o
-8 8 8 35.665 36.305 0.653 10.846 o
-8 8 9 5.186 5.063 0.362 114.878 o
-8 8 10 38.360 39.359 0.814 8.583 o
-8 8 11 1.563 1.718 0.301 192.063 o
-8 8 12 2.372 3.144 0.653 41.392 o
-8 8 13 1.829 1.808 0.663 40.476 o
-8 8 14 26.534 27.063 1.216 8.308 o
-8 8 15 0.009 -0.442 0.653 42.031 o
-8 9 1 7.901 8.247 0.281 127.710 o
-8 9 2 87.692 87.960 1.617 1.800 o
-8 9 3 0.299 0.221 0.181 546.909 o
-8 9 4 6.473 6.238 0.301 138.095 o
-8 9 5 2.009 1.858 0.251 268.573 o
-8 9 6 7.309 7.022 0.311 122.300 o
-8 9 7 31.847 33.944 0.794 10.937 o
-8 9 8 35.601 36.114 0.784 9.779 o
-8 9 9 6.722 6.540 0.442 75.415 o
-8 9 10 7.128 7.735 0.382 91.014 o
-8 9 11 0.043 0.080 0.251 284.118 o
-8 9 12 37.710 40.846 0.784 8.766 o
-8 9 13 3.316 4.310 0.733 32.557 o
-8 10 1 5.223 4.691 0.321 140.459 o
-8 10 2 15.175 15.701 0.522 36.038 o
-8 10 3 32.416 33.110 0.643 12.546 o
-8 10 4 76.766 80.847 1.376 2.325 o
-8 10 5 0.235 0.522 0.301 197.087 o
-8 10 6 7.355 7.193 0.402 84.440 o
-8 10 7 3.277 3.586 0.342 140.513 o
-8 10 8 37.106 37.782 0.784 9.232 o
-8 10 9 15.759 15.732 0.482 38.231 o
-8 10 10 9.649 9.584 0.382 76.586 o
-8 10 11 26.390 26.993 0.603 17.287 o
-8 10 12 1.756 1.718 0.613 47.359 o
-8 11 1 3.608 3.315 0.342 139.578 o
-8 11 2 42.544 44.402 0.753 7.652 o
-8 11 3 0.026 0.020 0.281 226.506 o
-8 11 4 0.659 0.844 0.291 209.933 o
-8 11 5 29.625 31.764 1.326 6.801 o
-8 11 6 2.757 3.335 0.321 160.545 o
-8 11 7 76.958 83.650 1.376 2.278 o
-8 11 8 1.709 1.758 0.261 252.215 o
-8 11 9 0.840 0.412 0.221 363.459 o
-8 11 10 0.513 0.442 0.221 365.200 o
-8 11 11 7.536 7.946 0.794 26.128 o
-8 12 1 6.541 6.369 0.372 100.571 o
-8 12 2 2.085 2.120 0.261 247.510 o
-8 12 3 41.591 44.412 0.914 7.005 o
-8 12 4 0.470 0.452 0.623 46.173 o
-8 12 5 2.621 3.094 0.301 182.533 o
-8 12 6 9.581 10.036 0.492 53.896 o
-8 12 7 0.938 1.125 0.281 223.813 o
-8 12 8 0.620 0.593 0.211 399.488 o
-8 12 9 7.499 7.494 0.311 119.062 o
-8 13 1 0.062 0.201 0.251 284.081 o
-8 13 2 1.088 1.276 0.573 54.448 o
-8 13 3 28.390 30.187 0.633 14.923 o
-8 13 4 0.015 -0.090 0.321 173.420 o
-8 13 5 3.966 3.777 0.281 191.413 o
-8 13 6 1.482 1.416 0.251 275.273 o
-8 13 7 27.960 28.620 1.256 7.681 o
-7 1 1 59.956 58.968 0.784 4.480 o
-7 1 2 9.373 9.664 0.271 112.730 o
-7 1 3 6.308 6.238 0.241 187.174 o
-7 1 4 150.551 151.860 1.457 0.752 o
-7 1 5 0.457 0.804 0.151 778.552 o
-7 1 6 495.429 501.719 4.852 0.069 o
-7 1 7 12.493 12.276 0.291 77.315 o
-7 1 8 262.921 259.117 3.647 0.228 o
-7 1 9 4.359 4.561 0.201 303.604 o
-7 1 10 120.326 121.582 1.567 1.097 o
-7 1 11 9.770 8.981 0.241 124.269 o
-7 1 12 82.098 79.632 1.005 2.455 o
-7 1 13 38.476 37.882 0.623 10.049 o
-7 1 14 22.657 22.331 0.603 21.145 o
-7 1 15 6.205 6.098 0.271 163.195 o
-7 1 16 1.612 1.718 0.221 348.463 o
-7 1 17 1.720 1.969 0.281 217.977 o
-7 1 18 23.921 25.998 0.522 21.087 o
-7 1 19 0.936 1.035 0.201 434.338 o
-7 2 1 315.318 321.430 3.295 0.168 o
-7 2 2 29.409 27.756 0.442 18.129 o
-7 2 3 175.896 169.410 1.698 0.567 o
-7 2 4 26.403 25.375 0.593 17.955 o
-7 2 5 27.962 27.384 0.412 19.822 o
-7 2 6 249.364 248.700 2.712 0.270 o
-7 2 7 213.031 221.345 2.260 0.362 o
-7 2 8 229.318 231.341 2.481 0.317 o
-7 2 9 5.699 5.405 0.201 255.132 o
-7 2 10 135.671 134.089 1.627 0.894 o
-7 2 11 7.915 6.861 0.221 173.440 o
-7 2 12 82.785 81.601 1.135 2.311 o
-7 2 13 10.928 9.925 0.251 105.447 o
-7 2 14 3.128 2.903 0.191 395.549 o
-7 2 15 75.190 77.432 1.376 2.426 o
-7 2 16 19.101 19.328 0.412 34.471 o
-7 2 17 50.876 53.754 0.794 5.620 o
-7 2 18 0.270 0.201 0.191 491.136 o
-7 2 19 1.175 1.025 0.191 476.162 o
-7 3 1 285.335 291.183 3.134 0.203 o
-7 3 2 67.113 63.569 0.834 3.706 o
-7 3 3 239.559 238.423 2.521 0.295 o
-7 3 4 103.867 102.546 1.216 1.536 o
-7 3 5 85.162 80.506 1.005 2.337 o
-7 3 6 226.223 224.048 2.401 0.331 o
-7 3 7 52.343 48.219 0.713 6.008 o
-7 3 8 178.635 180.681 2.361 0.495 o
-7 3 9 3.129 2.632 0.201 367.763 o
-7 3 10 0.022 0.100 0.181 548.056 o
-7 3 11 174.824 178.461 2.602 0.494 o
-7 3 12 1.178 1.296 0.201 428.960 o
-7 3 13 178.807 181.434 2.431 0.489 o
-7 3 14 0.662 0.633 0.201 439.542 o
-7 3 15 15.962 15.330 0.462 39.839 o
-7 3 16 19.150 19.107 0.462 31.872 o
-7 3 17 0.000 -0.281 0.392 116.754 o
-7 3 18 0.015 -0.010 0.362 137.023 o
-7 3 19 13.808 13.843 1.316 9.364 o
-7 4 1 21.647 21.226 0.442 28.182 o
-7 4 2 40.511 39.158 0.623 9.352 o
-7 4 3 579.270 576.760 6.510 0.050 o
-7 4 4 1.579 1.587 0.342 150.542 o
-7 4 5 265.477 265.235 2.903 0.237 o
-7 4 6 14.362 13.732 0.382 53.262 o
-7 4 7 22.465 21.769 0.382 29.069 o
-7 4 8 2.895 2.873 0.181 441.003 o
-7 4 9 102.554 103.661 1.205 1.553 o
-7 4 10 2.173 2.702 0.211 360.149 o
-7 4 11 101.229 99.944 1.637 1.450 o
-7 4 12 67.874 67.246 1.075 3.249 o
-7 4 13 9.842 9.915 0.362 80.184 o
-7 4 14 20.188 19.479 0.482 29.301 o
-7 4 15 55.285 57.491 2.230 2.251 o
-7 4 16 8.343 8.499 0.392 81.232 o
-7 4 17 82.558 87.588 1.778 1.807 o
-7 4 18 3.614 3.988 0.311 162.482 o
-7 5 1 351.624 357.665 4.430 0.129 o
-7 5 2 17.571 16.395 0.392 41.241 o
-7 5 3 19.896 18.966 0.422 32.982 o
-7 5 4 88.046 85.971 0.984 2.176 o
-7 5 5 2.300 1.678 0.171 537.586 o
-7 5 6 29.665 28.700 0.472 17.183 o
-7 5 7 10.950 10.558 0.281 94.022 o
-7 5 8 2.544 2.331 0.191 424.109 o
-7 5 9 10.268 10.357 0.261 105.909 o
-7 5 10 12.567 12.155 0.432 53.699 o
-7 5 11 50.706 49.907 0.804 5.840 o
-7 5 12 0.399 0.763 0.181 543.805 o
-7 5 13 186.780 191.902 2.813 0.429 o
-7 5 14 15.464 15.651 0.502 37.190 o
-7 5 15 86.833 90.079 2.059 1.545 o
-7 5 16 0.341 0.281 0.221 366.171 o
-7 5 17 10.077 9.895 1.125 13.163 o
-7 5 18 0.101 -0.291 0.342 153.612 o
-7 6 1 24.800 22.954 0.382 25.500 o
-7 6 2 8.718 8.127 0.251 135.539 o
-7 6 3 192.066 188.808 1.959 0.465 o
-7 6 4 38.581 37.249 0.482 11.078 o
-7 6 5 70.514 67.667 1.236 2.921 o
-7 6 6 19.994 19.368 0.372 35.072 o
-7 6 7 22.133 20.352 0.382 30.500 o
-7 6 8 43.393 42.734 0.603 8.380 o
-7 6 9 25.834 25.074 0.542 19.533 o
-7 6 10 117.179 119.493 1.637 1.125 o
-7 6 11 130.893 131.497 2.089 0.864 o
-7 6 12 0.621 0.643 0.191 486.894 o
-7 6 13 0.191 -0.100 0.412 105.631 o
-7 6 14 12.986 11.995 0.422 54.214 o
-7 6 15 55.022 54.668 6.419 0.407 o
-7 6 16 1.913 1.698 0.623 45.816 o
-7 6 17 48.414 48.882 4.099 0.941 o
-7 7 1 84.013 81.952 1.135 2.268 o
-7 7 2 29.404 28.088 0.472 17.536 o
-7 7 3 12.120 11.352 0.332 73.462 o
-7 7 4 189.289 187.220 2.321 0.456 o
-7 7 5 8.364 8.458 0.522 52.708 o
-7 7 6 148.434 152.051 2.481 0.652 o
-7 7 7 1.827 1.637 0.241 293.350 o
-7 7 8 102.804 104.706 1.979 1.270 o
-7 7 9 0.008 -0.050 0.402 110.989 o
-7 7 10 0.003 -0.291 0.402 110.989 o
-7 7 11 0.123 0.121 0.251 284.067 o
-7 7 12 12.986 12.075 1.306 9.642 o
-7 7 13 85.460 83.861 6.921 0.327 o
-7 7 14 20.923 20.895 2.260 3.243 o
-7 7 15 67.275 61.730 1.868 2.368 o
-7 7 16 0.775 1.125 0.763 30.705 o
-7 7 17 9.780 10.166 0.974 17.181 o
-7 8 1 16.579 15.812 0.362 46.603 o
-7 8 2 95.662 95.835 1.788 1.503 o
-7 8 3 7.777 7.363 0.271 138.768 o
-7 8 4 104.276 104.515 2.662 1.026 o
-7 8 5 0.108 0.221 0.211 402.499 o
-7 8 6 48.167 47.044 0.974 5.735 o
-7 8 7 10.115 9.895 0.342 84.257 o
-7 8 8 5.139 4.942 0.281 172.929 o
-7 8 9 4.877 4.721 0.281 176.929 o
-7 8 10 196.086 201.807 3.335 0.370 o
-7 8 11 105.167 111.024 1.748 1.282 o
-7 8 12 49.442 53.383 1.647 3.468 o
-7 8 13 0.219 0.241 0.291 211.035 o
-7 8 14 0.224 0.542 0.703 36.234 o
-7 8 15 5.027 4.340 0.824 25.584 o
-7 8 16 0.349 0.613 0.703 36.228 o
-7 9 1 14.473 13.963 0.332 58.809 o
-7 9 2 32.862 30.709 0.573 13.660 o
-7 9 3 1.698 1.587 0.201 416.819 o
-7 9 4 20.250 21.166 0.995 12.879 o
-7 9 5 9.139 9.152 0.502 53.994 o
-7 9 6 143.329 148.957 2.511 0.679 o
-7 9 7 24.739 24.933 0.573 19.611 o
-7 9 8 218.115 232.034 3.295 0.308 o
-7 9 9 88.425 91.737 2.461 1.309 o
-7 9 10 4.784 5.224 0.342 128.180 o
-7 9 11 2.773 1.828 0.291 197.746 o
-7 9 15 3.089 3.355 0.743 31.874 o
-7 10 1 7.834 7.595 0.271 136.973 o
-7 10 2 0.763 1.035 0.191 482.727 o
-7 10 3 36.336 38.374 0.914 8.372 o
-7 10 4 82.578 84.835 2.431 1.431 o
-7 10 5 118.669 126.294 1.818 1.036 o
-7 10 6 12.166 11.814 0.462 50.942 o
-7 10 7 1.570 1.778 0.301 191.905 o
-7 10 8 33.246 34.989 0.753 10.812 o
-7 10 9 2.010 2.019 0.763 30.543 o
-7 10 10 82.603 85.187 2.642 1.316 o
-7 10 11 9.511 9.694 0.854 21.952 o
-7 10 12 4.627 4.099 0.703 34.909 o
-7 11 1 72.740 77.562 1.125 2.744 o
-7 11 2 4.605 4.681 0.311 152.647 o
-7 11 3 24.705 26.099 0.663 17.183 o
-7 11 4 0.984 1.537 0.311 182.343 o
-7 11 5 9.447 9.232 0.573 43.541 o
-7 11 6 31.782 33.552 0.743 11.557 o
-7 11 7 16.938 18.223 0.723 22.114 o
-7 11 8 68.823 71.113 1.205 2.955 o
-7 11 9 32.586 33.914 0.703 11.687 o
-7 11 10 1.287 1.326 0.623 46.006 o
-7 11 11 15.996 16.616 1.025 13.786 o
-7 11 12 3.067 3.616 0.683 37.594 o
-7 12 1 11.017 11.191 0.462 54.249 o
-7 12 2 4.929 5.264 0.362 115.630 o
-7 12 3 59.321 64.091 1.125 3.734 o
-7 12 4 29.117 30.951 0.703 13.412 o
-7 12 5 105.369 113.626 3.144 0.853 o
-7 12 6 12.211 11.864 0.462 50.787 o
-7 12 7 0.960 1.035 0.251 280.031 o
-7 12 8 0.299 0.352 0.583 52.774 o
-7 12 9 8.745 8.780 0.844 22.826 o
-7 12 10 19.802 19.830 1.085 11.555 o
-7 12 11 0.060 -0.613 0.553 58.705 o
-7 13 1 58.866 64.593 2.059 2.310 o
-7 13 2 46.744 51.102 1.647 3.638 o
-7 13 3 8.918 10.106 0.593 41.301 o
-7 13 4 0.414 0.080 0.241 307.840 o
-7 13 5 4.901 5.374 1.005 17.340 o
-7 13 6 1.525 1.426 0.251 274.890 o
-7 13 7 4.558 4.862 0.723 32.953 o
-7 13 8 5.246 4.641 0.703 34.548 o
-7 14 1 37.090 40.936 1.447 5.128 o
-7 14 2 18.598 19.318 1.055 12.354 o
-7 14 3 11.967 13.120 0.402 58.420 o
-7 14 4 1.646 1.236 0.653 41.819 o
-6 0 2 1385.090 1409.440 19.488 0.008 o
-6 0 4 2204.670 2254.380 36.777 0.003 o
-6 0 6 110.014 112.893 1.437 1.299 o
-6 0 8 377.453 393.337 5.194 0.108 o
-6 0 10 79.108 81.078 1.135 2.439 o
-6 0 12 14.853 15.430 0.573 32.976 o
-6 0 14 15.783 16.425 0.432 41.647 o
-6 0 16 40.207 41.227 0.854 7.809 o
-6 0 18 41.190 45.185 0.894 7.108 o
-6 1 1 31.719 30.589 0.452 15.721 o
-6 1 2 1370.200 1419.830 15.390 0.009 o
-6 1 3 6.514 5.445 0.201 234.328 o
-6 1 4 29.577 29.544 0.412 17.882 o
-6 1 5 351.485 356.188 3.335 0.138 o
-6 1 6 607.822 623.763 5.967 0.046 o
-6 1 7 44.228 43.588 0.623 8.026 o
-6 1 8 303.173 314.720 3.426 0.177 o
-6 1 9 3.096 2.923 0.231 288.220 o
-6 1 10 96.155 97.181 1.276 1.707 o
-6 1 11 13.988 13.411 0.382 54.806 o
-6 1 12 105.850 105.499 1.195 1.484 o
-6 1 13 34.218 33.964 0.663 11.568 o
-6 1 14 25.787 24.973 0.462 21.498 o
-6 1 15 19.934 19.730 0.352 35.878 o
-6 1 16 0.477 0.553 0.291 210.561 o
-6 1 17 3.484 3.556 0.241 256.562 o
-6 1 18 0.331 0.703 0.221 365.431 o
-6 1 19 5.139 5.033 0.402 96.207 o
-6 2 1 141.758 145.069 1.426 0.835 o
-6 2 2 132.021 130.995 1.426 0.966 o
-6 2 3 1.811 1.637 0.161 623.076 o
-6 2 4 1451.740 1478.090 16.816 0.008 o
-6 2 5 21.331 21.437 0.352 32.093 o
-6 2 6 283.229 286.260 2.732 0.212 o
-6 2 7 26.102 25.265 0.422 22.040 o
-6 2 8 19.072 18.464 0.362 38.138 o
-6 2 9 360.640 350.583 3.596 0.133 o
-6 2 10 29.971 29.213 0.432 17.438 o
-6 2 11 97.110 96.277 1.497 1.604 o
-6 2 12 9.451 8.971 0.241 127.694 o
-6 2 13 10.157 9.855 0.291 98.912 o
-6 2 14 86.570 88.382 1.286 2.016 o
-6 2 15 1.368 1.376 0.171 578.951 o
-6 2 16 2.611 2.732 0.241 276.454 o
-6 2 17 0.953 0.844 0.211 395.572 o
-6 2 18 10.354 10.689 0.613 37.349 o
-6 2 19 3.295 3.576 0.251 242.149 o
-6 3 1 174.272 170.987 2.260 0.532 o
-6 3 2 231.832 227.724 2.321 0.320 o
-6 3 3 210.669 211.943 2.180 0.380 o
-6 3 4 13.761 12.858 0.321 64.960 o
-6 3 5 521.253 522.172 5.224 0.063 o
-6 3 6 102.790 100.778 1.195 1.577 o
-6 3 7 315.500 318.547 3.878 0.162 o
-6 3 8 139.081 137.746 2.200 0.774 o
-6 3 9 75.132 73.152 1.597 2.288 o
-6 3 10 14.053 13.100 0.321 63.324 o
-6 3 11 21.286 20.242 0.522 25.958 o
-6 3 12 7.140 7.072 0.271 147.120 o
-6 3 13 102.062 103.189 1.658 1.407 o
-6 3 14 13.062 12.718 0.332 66.487 o
-6 3 15 25.553 25.506 0.563 19.114 o
-6 3 16 0.253 0.432 0.261 262.337 o
-6 3 17 4.684 4.641 0.432 86.424 o
-6 3 18 0.413 0.492 0.281 225.983 o
-6 3 19 6.599 6.299 0.342 114.229 o
-6 4 1 307.150 314.529 3.215 0.176 o
-6 4 2 67.743 66.321 0.854 3.557 o
-6 4 3 37.947 36.837 0.583 10.640 o
-6 4 4 345.911 343.892 3.596 0.142 o
-6 4 5 0.141 0.221 0.181 547.645 o
-6 4 6 1.226 1.115 0.191 474.385 o
-6 4 7 8.404 7.283 0.281 127.522 o
-6 4 8 0.623 0.512 0.151 778.039 o
-6 4 9 602.687 596.540 6.781 0.046 o
-6 4 10 4.348 4.601 0.281 183.190 o
-6 4 11 280.713 289.445 4.199 0.190 o
-6 4 12 11.861 11.844 0.321 75.553 o
-6 4 13 5.299 4.922 0.251 202.356 o
-6 4 14 22.527 22.653 0.553 22.674 o
-6 4 15 0.578 0.281 0.241 307.149 o
-6 4 16 13.201 12.718 1.085 13.383 o
-6 4 17 0.036 0.131 0.281 226.496 o
-6 4 18 1.971 1.517 0.281 217.829 o
-6 4 19 8.327 8.710 0.372 86.900 o
-6 5 1 312.699 312.680 3.275 0.173 o
-6 5 2 21.605 20.593 0.512 25.849 o
-6 5 3 181.091 178.611 1.929 0.517 o
-6 5 4 54.765 52.860 0.743 5.360 o
-6 5 5 201.857 199.476 2.220 0.413 o
-6 5 6 41.757 40.996 0.713 8.338 o
-6 5 7 546.532 554.007 6.379 0.055 o
-6 5 8 16.296 16.455 0.301 51.888 o
-6 5 9 85.286 85.991 1.386 2.016 o
-6 5 10 10.702 10.186 0.301 91.232 o
-6 5 11 69.180 68.491 1.145 3.069 o
-6 5 12 54.480 53.614 1.095 4.485 o
-6 5 13 47.748 47.968 0.683 6.776 o
-6 5 14 3.196 3.064 0.231 285.149 o
-6 5 15 23.924 25.305 0.934 12.453 o
-6 5 16 8.824 8.810 0.784 26.046 o
-6 5 17 8.965 8.479 0.713 30.765 o
-6 5 18 2.998 2.642 0.301 181.532 o
-6 6 1 13.624 12.758 0.342 62.656 o
-6 6 2 224.101 221.155 2.391 0.337 o
-6 6 3 178.587 178.019 2.079 0.517 o
-6 6 4 55.637 53.031 0.683 5.392 o
-6 6 5 38.107 37.741 0.603 10.314 o
-6 6 6 120.246 121.140 1.507 1.112 o
-6 6 7 123.169 121.191 1.376 1.107 o
-6 6 8 0.916 0.984 0.171 597.284 o
-6 6 9 136.924 134.622 2.089 0.814 o
-6 6 10 23.055 21.990 0.563 22.200 o
-6 6 11 111.378 111.306 2.039 1.122 o
-6 6 12 22.024 22.311 0.613 21.297 o
-6 6 13 62.532 61.811 1.316 3.302 o
-6 6 14 1.866 1.708 0.251 270.689 o
-6 6 15 28.342 27.214 2.521 2.523 o
-6 6 16 20.407 19.689 0.804 17.345 o
-6 6 17 0.224 0.442 0.462 83.891 o
-6 6 18 1.745 1.889 0.492 73.039 o
-6 7 1 76.202 73.444 1.095 2.717 o
-6 7 2 175.564 173.227 2.180 0.529 o
-6 7 3 6.264 5.967 0.261 171.629 o
-6 7 4 38.827 37.109 0.593 10.270 o
-6 7 5 49.982 50.740 0.784 5.939 o
-6 7 6 24.581 24.351 0.643 18.190 o
-6 7 7 181.457 189.531 2.331 0.475 o
-6 7 8 59.195 61.077 0.974 4.112 o
-6 7 9 41.850 41.559 0.934 7.075 o
-6 7 10 98.170 96.438 2.270 1.260 o
-6 7 11 23.113 22.000 0.995 12.095 o
-6 7 12 12.160 11.211 0.432 55.971 o
-6 7 13 22.826 20.192 1.155 9.993 o
-6 7 14 14.213 12.627 1.025 14.590 o
-6 7 15 1.475 1.517 0.784 29.088 o
-6 7 16 6.069 5.274 0.884 22.027 o
-6 7 17 0.011 0.663 0.784 29.186 o
-6 8 1 0.074 0.111 0.201 443.878 o
-6 8 2 294.947 298.637 3.385 0.189 o
-6 8 3 17.423 16.565 0.362 43.658 o
-6 8 4 329.300 338.930 4.279 0.145 o
-6 8 5 7.292 7.152 0.402 84.746 o
-6 8 6 162.124 164.557 2.049 0.608 o
-6 8 7 8.774 8.840 0.342 94.148 o
-6 8 8 0.289 0.462 0.191 490.374 o
-6 8 9 55.067 54.387 1.296 3.944 o
-6 8 10 17.120 16.595 0.412 40.445 o
-6 8 11 14.815 14.074 0.723 24.709 o
-6 8 12 13.412 12.547 0.984 15.814 o
-6 8 13 0.002 -0.121 0.693 37.299 o
-6 8 14 4.561 4.169 0.824 25.702 o
-6 8 15 6.766 5.153 0.864 22.878 o
-6 8 16 24.493 22.603 1.226 8.766 o
-6 9 1 16.567 16.384 0.362 45.919 o
-6 9 2 181.136 184.930 2.029 0.501 o
-6 9 3 2.318 2.290 0.211 361.448 o
-6 9 4 2.277 1.698 0.241 287.828 o
-6 9 5 5.773 5.565 0.291 154.682 o
-6 9 6 51.795 50.349 0.804 5.683 o
-6 9 7 2.352 2.110 0.251 263.599 o
-6 9 8 79.047 80.034 1.125 2.466 o
-6 9 9 18.560 17.962 0.462 33.523 o
-6 9 10 32.544 32.397 0.713 11.834 o
-6 9 11 8.717 9.473 0.824 23.731 o
-6 9 12 10.074 9.051 0.884 20.558 o
-6 9 13 2.385 2.361 0.753 31.274 o
-6 9 14 20.852 18.936 1.125 10.828 o
-6 9 15 6.102 6.339 0.844 23.944 o
-6 10 1 7.325 7.233 0.261 150.728 o
-6 10 2 77.956 78.979 1.125 2.522 o
-6 10 3 0.856 0.763 0.221 362.096 o
-6 10 4 164.020 170.474 2.200 0.576 o
-6 10 5 5.245 5.837 0.301 150.557 o
-6 10 6 187.354 193.137 2.491 0.444 o
-6 10 7 41.424 42.634 0.784 7.859 o
-6 10 8 22.962 21.538 0.583 21.826 o
-6 10 9 5.045 5.324 0.713 33.569 o
-6 10 10 4.129 4.229 0.693 36.061 o
-6 10 11 14.216 15.752 0.984 15.242 o
-6 10 12 1.634 1.858 0.623 45.868 o
-6 10 14 5.832 5.716 0.784 27.744 o
-6 11 1 38.233 38.867 0.603 10.120 o
-6 11 2 110.605 114.490 1.738 1.199 o
-6 11 3 98.072 100.898 1.376 1.596 o
-6 11 4 4.307 4.440 0.301 164.625 o
-6 11 5 0.202 0.412 0.492 73.940 o
-6 11 6 67.124 69.707 1.205 3.061 o
-6 11 7 18.265 18.625 0.542 29.084 o
-6 11 8 11.082 10.397 0.874 20.457 o
-6 11 9 15.919 16.616 1.025 13.803 o
-6 11 10 0.011 -0.121 0.583 52.789 o
-6 11 11 7.951 8.258 0.814 24.757 o
-6 11 12 8.706 9.312 0.824 23.764 o
-6 12 1 22.445 24.592 0.653 19.121 o
-6 12 2 62.439 64.282 1.135 3.531 o
-6 12 3 1.470 1.668 0.311 180.604 o
-6 12 4 26.823 27.485 0.663 15.774 o
-6 12 5 0.906 0.723 0.271 241.364 o
-6 12 6 4.599 4.822 0.332 137.117 o
-6 12 7 10.888 11.181 0.904 19.221 o
-6 12 8 0.007 -0.271 0.553 58.705 o
-6 12 9 12.903 13.341 0.954 16.703 o
-6 12 10 0.086 0.131 0.583 52.788 o
-6 12 11 19.648 21.457 1.115 10.968 o
-6 13 1 22.984 23.929 0.623 19.804 o
-6 13 2 35.572 37.942 0.763 9.728 o
-6 13 3 5.152 5.334 0.573 50.659 o
-6 13 4 0.261 0.111 0.251 283.941 o
-6 13 5 22.054 23.828 1.175 9.584 o
-6 13 6 9.074 8.870 0.844 22.704 o
-6 13 7 20.158 20.393 1.115 10.972 o
-6 13 8 0.057 0.060 0.542 60.899 o
-6 13 9 3.403 3.466 0.663 39.758 o
-6 14 1 0.478 1.035 0.542 60.813 o
-6 14 2 0.010 0.402 0.522 65.669 o
-6 14 3 2.173 1.939 0.633 44.280 o
-6 14 4 0.014 -0.321 0.553 58.705 o
-6 14 5 14.086 15.460 0.984 15.308 o
-6 14 6 0.304 -0.151 0.542 60.891 o
-5 1 1 6.077 5.746 0.241 194.718 o
-5 1 2 882.971 916.443 8.659 0.021 o
-5 1 3 109.812 111.185 1.075 1.407 o
-5 1 4 137.291 143.783 1.356 0.880 o
-5 1 5 34.957 34.256 0.442 13.337 o
-5 1 6 529.757 549.576 5.133 0.060 o
-5 1 7 142.394 148.324 1.497 0.811 o
-5 1 8 5.179 4.621 0.251 206.428 o
-5 1 9 0.238 0.321 0.201 443.216 o
-5 1 10 0.871 0.844 0.221 361.669 o
-5 1 11 54.583 52.900 0.774 5.306 o
-5 1 12 0.323 0.603 0.161 689.279 o
-5 1 13 26.398 25.486 0.603 17.712 o
-5 1 14 5.572 5.364 0.221 230.693 o
-5 1 15 7.660 7.574 0.241 157.765 o
-5 1 16 91.740 93.786 1.567 1.692 o
-5 1 17 0.046 0.181 0.221 366.846 o
-5 1 18 32.202 34.788 0.804 10.623 o
-5 1 19 0.259 0.342 0.221 366.320 o
-5 1 20 20.910 22.392 0.763 17.583 o
-5 2 1 117.024 120.648 1.236 1.208 o
-5 2 2 27.760 25.566 0.402 20.905 o
-5 2 3 1001.250 1033.710 10.015 0.017 o
-5 2 4 2.531 2.120 0.161 572.687 o
-5 2 5 109.638 116.710 1.236 1.330 o
-5 2 6 375.080 382.578 3.938 0.118 o
-5 2 7 4.132 4.410 0.211 291.375 o
-5 2 8 5.511 5.013 0.211 249.902 o
-5 2 9 112.788 107.759 1.647 1.238 o
-5 2 10 104.579 100.778 1.246 1.530 o
-5 2 11 30.526 29.896 0.542 15.322 o
-5 2 12 15.502 15.440 0.301 56.162 o
-5 2 13 60.723 62.112 1.015 3.900 o
-5 2 14 45.839 44.733 0.944 6.264 o
-5 2 15 5.372 5.254 0.221 236.031 o
-5 2 16 14.287 13.863 0.362 55.766 o
-5 2 17 17.308 17.339 0.864 17.365 o
-5 2 18 2.463 2.552 0.261 241.730 o
-5 2 19 4.459 4.661 0.271 192.535 o
-5 2 20 47.599 52.930 1.668 3.512 o
-5 3 1 134.639 129.267 1.286 0.971 o
-5 3 2 291.011 284.794 3.184 0.200 o
-5 3 3 0.766 0.462 0.171 605.727 o
-5 3 4 85.081 87.658 1.095 2.177 o
-5 3 5 16.377 16.133 0.311 51.219 o
-5 3 6 0.022 0.342 0.261 262.635 o
-5 3 7 300.326 310.480 3.697 0.177 o
-5 3 8 0.059 0.010 0.151 789.194 o
-5 3 9 172.905 175.849 2.411 0.518 o
-5 3 10 33.443 33.342 0.482 13.833 o
-5 3 11 83.058 80.536 1.045 2.380 o
-5 3 12 15.660 15.711 0.342 51.097 o
-5 3 13 95.527 96.760 1.205 1.754 o
-5 3 14 15.373 14.657 0.382 49.252 o
-5 3 15 0.579 0.583 0.191 487.630 o
-5 3 16 11.640 11.492 0.372 67.345 o
-5 3 17 14.689 15.842 0.502 38.237 o
-5 3 18 35.375 33.502 2.230 2.926 o
-5 3 19 1.554 1.537 0.281 220.155 o
-5 4 1 855.709 877.637 9.533 0.022 o
-5 4 2 258.201 253.100 2.873 0.253 o
-5 4 3 590.045 603.481 6.248 0.048 o
-5 4 4 63.937 67.778 0.763 3.868 o
-5 4 5 246.521 247.404 2.391 0.281 o
-5 4 6 28.935 28.610 0.502 17.171 o
-5 4 7 152.357 153.005 1.949 0.690 o
-5 4 8 2.465 1.858 0.201 396.112 o
-5 4 9 16.739 15.139 0.321 50.703 o
-5 4 10 10.373 10.096 0.342 82.466 o
-5 4 11 14.799 15.581 0.362 51.678 o
-5 4 12 6.907 6.911 0.271 150.573 o
-5 4 13 25.259 25.034 0.442 22.418 o
-5 4 14 49.540 50.168 1.226 4.644 o
-5 4 15 79.199 79.200 3.737 0.899 o
-5 4 16 0.546 0.422 0.362 136.770 o
-5 4 17 9.050 7.715 0.593 42.485 o
-5 4 18 9.087 9.051 0.402 74.703 o
-5 4 19 2.414 2.401 0.301 185.989 o
-5 5 1 418.418 425.191 4.018 0.097 o
-5 5 2 45.717 43.638 0.633 7.688 o
-5 5 3 6.060 5.796 0.261 175.375 o
-5 5 4 256.102 261.287 2.692 0.254 o
-5 5 5 101.986 105.509 1.678 1.384 o
-5 5 6 48.788 45.567 0.693 6.766 o
-5 5 7 78.585 77.723 1.346 2.342 o
-5 5 8 0.032 0.141 0.171 614.379 o
-5 5 9 124.028 126.274 1.758 1.000 o
-5 5 10 0.310 0.281 0.171 612.664 o
-5 5 11 161.130 160.439 2.411 0.588 o
-5 5 12 3.854 3.174 0.221 291.996 o
-5 5 13 30.398 29.283 0.864 11.165 o
-5 5 14 64.681 62.263 2.742 1.571 o
-5 5 15 4.176 3.576 0.342 136.058 o
-5 5 16 0.818 0.693 0.291 209.738 o
-5 5 17 1.272 1.336 0.301 193.911 o
-5 5 18 0.365 0.241 0.281 226.223 o
-5 5 19 0.009 0.111 0.382 122.978 o
-5 6 1 130.659 131.166 1.386 0.983 o
-5 6 2 177.002 176.532 1.949 0.534 o
-5 6 3 151.380 149.831 1.748 0.725 o
-5 6 4 22.779 22.191 0.452 25.970 o
-5 6 5 403.361 410.927 5.073 0.098 o
-5 6 6 20.944 20.433 0.502 27.019 o
-5 6 7 0.035 -0.131 0.462 83.923 o
-5 6 8 121.403 118.970 1.868 1.033 o
-5 6 9 10.360 9.815 0.321 88.716 o
-5 6 10 54.199 53.573 1.336 3.929 o
-5 6 11 16.084 15.400 0.563 32.236 o
-5 6 12 58.791 56.647 2.069 2.391 o
-5 6 13 37.195 34.467 1.517 5.041 o
-5 6 14 3.939 3.004 0.342 138.716 o
-5 6 15 32.765 30.358 2.401 2.660 o
-5 6 16 3.434 2.903 0.321 157.974 o
-5 6 17 0.729 0.733 0.794 28.431 o
-5 6 18 11.311 11.131 1.035 15.045 o
-5 7 1 112.842 114.691 1.356 1.271 o
-5 7 2 296.884 300.857 3.355 0.187 o
-5 7 3 0.002 0.090 0.211 402.673 o
-5 7 4 167.510 162.699 2.742 0.531 o
-5 7 5 81.540 79.551 1.055 2.441 o
-5 7 6 88.887 89.266 1.195 1.997 o
-5 7 7 0.038 0.382 0.221 366.739 o
-5 7 8 114.322 114.199 1.617 1.190 o
-5 7 9 1.240 1.306 0.201 427.870 o
-5 7 10 42.509 42.151 0.824 7.499 o
-5 7 11 77.930 69.486 1.396 2.447 o
-5 7 12 6.836 5.565 0.512 59.410 o
-5 7 13 0.231 0.603 0.703 36.233 o
-5 7 14 11.537 9.674 0.964 17.173 o
-5 7 15 3.837 3.687 0.834 25.281 o
-5 7 16 36.499 33.974 1.467 5.330 o
-5 7 17 4.405 4.470 0.894 21.908 o
-5 8 1 60.720 57.622 0.864 4.329 o
-5 8 2 4.562 4.822 0.221 258.137 o
-5 8 3 0.141 0.382 0.181 547.313 o
-5 8 4 0.309 0.181 0.211 402.070 o
-5 8 5 0.098 -0.020 0.422 100.668 o
-5 8 6 12.846 13.039 0.382 58.861 o
-5 8 7 0.403 0.452 0.221 365.651 o
-5 8 8 313.478 325.679 4.159 0.158 o
-5 8 9 1.092 0.924 0.191 478.483 o
-5 8 10 9.676 8.860 0.352 86.221 o
-5 8 11 0.835 0.884 0.281 224.549 o
-5 8 12 51.349 41.951 1.517 3.969 o
-5 8 13 15.497 14.345 1.055 13.473 o
-5 8 14 24.745 22.673 1.246 8.523 o
-5 8 15 3.058 3.345 0.814 26.685 o
-5 8 16 0.521 0.131 0.743 32.421 o
-5 8 17 0.130 0.753 0.763 30.739 o
-5 9 1 6.622 6.690 0.221 197.156 o
-5 9 2 165.311 167.200 1.879 0.602 o
-5 9 3 31.940 30.609 0.573 14.081 o
-5 9 4 213.427 219.678 2.722 0.347 o
-5 9 5 20.347 20.493 0.563 25.146 o
-5 9 6 23.182 23.165 0.502 23.461 o
-5 9 7 0.859 0.673 0.261 260.387 o
-5 9 8 40.985 40.584 0.743 8.366 o
-5 9 9 21.694 22.221 0.673 19.726 o
-5 9 10 0.101 0.040 0.241 308.270 o
-5 9 11 17.678 16.846 0.532 31.338 o
-5 9 12 4.670 4.089 0.774 29.026 o
-5 9 13 0.645 0.020 0.683 38.389 o
-5 9 14 5.331 5.194 0.844 24.261 o
-5 9 15 4.170 3.847 0.814 26.439 o
-5 9 16 11.908 12.165 0.995 15.915 o
-5 10 1 7.861 7.514 0.251 149.085 o
-5 10 2 21.273 21.950 0.472 27.025 o
-5 10 3 32.461 33.281 0.763 11.177 o
-5 10 4 6.260 5.796 0.291 148.877 o
-5 10 5 59.577 59.992 0.904 4.253 o
-5 10 6 20.175 20.413 0.472 29.205 o
-5 10 7 39.465 39.007 0.924 7.705 o
-5 10 8 32.274 31.644 0.804 11.028 o
-5 10 9 2.746 2.622 0.613 46.855 o
-5 10 10 3.480 2.943 0.623 44.993 o
-5 10 11 0.798 0.532 0.563 56.541 o
-5 10 12 34.397 33.412 1.386 5.920 o
-5 10 13 28.879 29.464 1.316 7.064 o
-5 10 14 4.876 5.224 0.804 26.764 o
-5 10 15 11.079 10.176 0.904 19.310 o
-5 11 1 76.209 77.783 1.045 2.675 o
-5 11 2 13.868 13.381 0.432 49.033 o
-5 11 3 0.223 0.281 0.191 491.162 o
-5 11 4 32.595 33.583 0.623 12.617 o
-5 11 5 4.634 4.480 0.352 124.776 o
-5 11 6 1.980 2.501 0.342 148.013 o
-5 11 7 5.066 4.872 0.683 36.539 o
-5 11 8 2.064 2.210 0.623 45.696 o
-5 11 9 113.293 124.666 2.642 0.894 o
-5 11 10 1.785 2.059 0.593 50.532 o
-5 11 11 22.852 24.682 1.165 9.521 o
-5 11 12 3.505 3.978 0.683 37.381 o
-5 12 1 30.656 30.026 0.713 12.878 o
-5 12 2 1.623 1.577 0.231 320.897 o
-5 12 3 56.624 59.219 1.577 3.180 o
-5 12 4 29.998 30.991 0.703 13.076 o
-5 12 5 41.435 43.839 1.517 4.480 o
-5 12 6 18.501 19.529 1.085 11.827 o
-5 12 7 73.019 77.221 2.039 1.900 o
-5 12 8 1.226 1.296 0.593 50.800 o
-5 12 9 0.333 -0.332 0.522 65.663 o
-5 12 10 0.148 -0.090 0.542 60.897 o
-5 12 11 0.570 0.201 0.563 56.593 o
-5 12 12 0.796 0.522 0.583 52.716 o
-5 13 1 13.238 12.617 0.402 55.451 o
-5 13 2 0.045 0.060 0.201 443.929 o
-5 13 3 29.739 29.333 1.406 6.372 o
-5 13 4 17.294 17.670 1.035 13.181 o
-5 13 5 8.535 8.921 0.824 23.893 o
-5 13 6 0.519 1.055 0.573 54.580 o
-5 13 7 14.331 14.958 0.974 15.572 o
-5 13 8 0.620 0.964 0.573 54.572 o
-5 13 9 17.037 17.570 1.035 13.247 o
-5 13 10 0.312 0.502 0.573 54.635 o
-5 14 1 0.526 0.342 0.221 365.370 o
-5 14 2 2.163 2.863 0.613 47.039 o
-5 14 3 54.857 55.442 2.190 2.333 o
-5 14 4 6.774 6.640 0.763 28.627 o
-5 14 5 13.050 13.511 0.944 16.943 o
-5 14 6 4.040 3.797 0.673 38.298 o
-5 14 7 8.320 8.549 0.804 25.134 o
-5 14 8 15.190 15.631 0.984 15.019 o
-5 15 1 0.913 0.482 0.542 60.783 o
-4 0 2 987.814 1130.880 14.737 0.014 o
-4 0 4 578.879 606.927 8.921 0.044 o
-4 0 6 160.855 171.861 2.100 0.594 o
-4 0 8 130.726 133.667 2.542 0.780 o
-4 0 10 208.872 209.100 3.556 0.330 o
-4 0 12 217.935 227.192 4.058 0.284 o
-4 0 14 393.035 413.468 5.837 0.096 o
-4 0 16 84.623 90.541 1.366 1.989 o
-4 0 18 0.103 0.100 0.633 44.741 o
-4 0 20 0.191 0.683 0.733 33.316 o
-4 1 1 63.936 69.827 0.804 3.748 o
-4 1 2 0.060 0.442 0.191 491.466 o
-4 1 3 99.789 103.058 1.256 1.590 o
-4 1 4 32.142 33.422 0.693 12.022 o
-4 1 5 77.749 76.166 0.874 2.781 o
-4 1 6 2.720 3.174 0.181 441.946 o
-4 1 7 104.588 103.460 1.115 1.547 o
-4 1 8 458.082 485.746 5.374 0.076 o
-4 1 9 5.175 4.249 0.251 209.289 o
-4 1 10 184.114 185.784 2.079 0.487 o
-4 1 11 45.426 44.603 0.794 6.969 o
-4 1 12 613.097 649.972 7.313 0.042 o
-4 1 13 0.951 0.944 0.181 534.092 o
-4 1 14 16.643 16.726 0.422 40.482 o
-4 1 15 5.582 5.214 0.221 232.060 o
-4 1 16 63.829 65.337 1.075 3.516 o
-4 1 17 14.232 14.526 0.502 40.014 o
-4 1 18 61.538 67.165 1.165 3.454 o
-4 1 19 0.044 -0.241 0.392 116.753 o
-4 1 20 2.382 2.612 0.321 164.268 o
-4 2 1 694.089 736.927 6.992 0.034 o
-4 2 2 931.349 1019.860 10.307 0.018 o
-4 2 3 122.082 121.894 1.366 1.117 o
-4 2 4 193.571 196.342 1.999 0.448 o
-4 2 5 298.293 317.994 2.974 0.184 o
-4 2 6 31.894 30.951 0.442 15.649 o
-4 2 7 99.644 96.960 1.226 1.661 o
-4 2 8 212.634 222.169 2.441 0.356 o
-4 2 9 287.216 290.128 3.436 0.197 o
-4 2 10 106.629 106.293 1.577 1.348 o
-4 2 11 160.791 163.171 2.140 0.609 o
-4 2 12 159.629 163.282 1.929 0.632 o
-4 2 13 12.029 11.673 0.301 79.322 o
-4 2 14 140.624 142.959 2.120 0.761 o
-4 2 15 5.383 5.023 0.231 224.669 o
-4 2 16 82.410 79.923 2.321 1.529 o
-4 2 17 3.162 3.044 0.281 202.718 o
-4 2 18 0.201 0.111 0.241 308.155 o
-4 2 19 31.123 33.934 1.396 6.119 o
-4 2 20 2.620 2.933 0.311 172.236 o
-4 3 1 313.282 327.166 3.526 0.165 o
-4 3 2 513.464 538.225 5.394 0.062 o
-4 3 3 91.962 96.549 0.974 1.932 o
-4 3 4 432.619 451.240 4.862 0.087 o
-4 3 5 1118.710 1147.540 11.532 0.013 o
-4 3 6 45.330 45.105 0.573 7.866 o
-4 3 7 516.866 529.284 5.616 0.062 o
-4 3 8 0.685 0.603 0.151 775.184 o
-4 3 9 149.010 147.058 2.079 0.709 o
-4 3 10 194.775 197.477 2.110 0.438 o
-4 3 11 54.413 52.840 0.794 5.278 o
-4 3 12 205.935 214.183 2.702 0.367 o
-4 3 13 23.824 24.049 0.462 23.658 o
-4 3 14 5.343 5.093 0.231 224.774 o
-4 3 15 64.774 66.783 1.316 3.084 o
-4 3 16 0.392 0.080 0.231 335.198 o
-4 3 17 25.382 25.546 1.175 8.971 o
-4 3 18 39.669 42.272 1.929 3.391 o
-4 3 19 6.528 6.399 0.321 124.977 o
-4 4 1 30.936 31.895 0.462 15.666 o
-4 4 2 0.037 0.271 0.161 693.342 o
-4 4 3 240.389 237.639 2.200 0.301 o
-4 4 4 123.839 121.090 1.577 1.062 o
-4 4 5 0.412 0.542 0.181 544.806 o
-4 4 6 153.230 152.081 1.688 0.714 o
-4 4 7 1017.420 1066.950 12.979 0.015 o
-4 4 8 2.128 2.250 0.221 336.076 o
-4 4 9 418.219 419.244 6.469 0.086 o
-4 4 10 15.879 16.314 0.442 40.736 o
-4 4 11 79.497 80.777 1.316 2.293 o
-4 4 12 6.831 6.942 0.261 158.393 o
-4 4 13 21.533 21.056 0.603 22.446 o
-4 4 14 28.483 26.912 1.316 7.237 o
-4 4 15 0.775 0.653 0.241 305.604 o
-4 4 16 25.812 23.637 1.828 4.546 o
-4 4 17 0.087 -0.241 0.412 105.639 o
-4 4 18 18.622 18.454 0.904 15.642 o
-4 4 19 11.131 11.774 0.422 59.617 o
-4 5 1 4.625 5.234 0.191 305.665 o
-4 5 2 39.610 40.122 0.522 10.068 o
-4 5 3 590.307 602.557 5.626 0.049 o
-4 5 4 7.100 6.419 0.221 190.994 o
-4 5 5 755.776 783.640 8.448 0.028 o
-4 5 6 66.900 68.491 1.075 3.267 o
-4 5 7 270.489 284.040 2.923 0.222 o
-4 5 8 18.779 18.645 0.623 24.815 o
-4 5 9 1.929 1.718 0.211 374.956 o
-4 5 10 49.227 48.721 0.733 6.333 o
-4 5 11 106.835 108.161 1.879 1.237 o
-4 5 12 43.000 39.861 1.738 3.816 o
-4 5 13 58.084 56.095 2.311 2.114 o
-4 5 14 8.906 8.479 0.653 35.877 o
-4 5 15 3.048 3.094 0.372 121.834 o
-4 5 16 1.283 1.045 0.301 194.362 o
-4 5 17 60.797 61.208 4.993 0.630 o
-4 5 18 0.016 -0.482 0.382 122.979 o
-4 5 19 18.137 18.404 0.743 20.623 o
-4 6 1 109.135 107.840 1.115 1.434 o
-4 6 2 282.691 289.666 2.903 0.209 o
-4 6 3 63.826 65.919 0.824 3.859 o
-4 6 4 255.474 260.835 2.843 0.252 o
-4 6 5 12.345 12.105 0.382 62.011 o
-4 6 6 1.893 1.647 0.231 317.130 o
-4 6 7 313.421 312.469 4.782 0.154 o
-4 6 8 12.904 12.276 0.372 61.450 o
-4 6 9 400.435 405.181 5.937 0.095 o
-4 6 10 15.243 13.230 1.085 12.993 o
-4 6 11 26.324 23.909 0.774 14.707 o
-4 6 12 22.413 18.163 0.683 20.216 o
-4 6 13 0.589 0.100 0.392 116.622 o
-4 6 14 29.468 24.391 0.763 13.601 o
-4 6 15 23.082 18.394 1.155 10.093 o
-4 6 16 2.650 2.160 0.784 28.911 o
-4 6 17 0.408 0.703 0.804 27.737 o
-4 6 18 4.314 3.365 0.874 23.003 o
-4 7 1 79.014 80.255 1.035 2.532 o
-4 7 2 6.381 6.530 0.261 166.542 o
-4 7 3 222.421 225.635 2.361 0.337 o
-4 7 4 9.609 8.679 0.321 96.509 o
-4 7 5 128.911 127.158 2.300 0.854 o
-4 7 6 226.886 228.136 3.014 0.307 o
-4 7 7 121.360 121.643 1.316 1.136 o
-4 7 8 42.117 40.645 0.774 7.970 o
-4 7 9 6.371 5.977 0.281 154.222 o
-4 7 10 140.384 140.468 4.802 0.428 o
-4 7 11 40.286 36.054 1.296 5.746 o
-4 7 12 37.074 32.950 1.095 7.428 o
-4 7 13 12.627 10.739 0.583 37.603 o
-4 7 14 8.267 7.022 0.894 20.885 o
-4 7 15 4.108 3.014 0.834 25.292 o
-4 7 16 23.288 22.984 1.306 8.082 o
-4 7 17 35.689 35.662 1.497 5.190 o
-4 7 18 0.747 1.135 0.784 29.154 o
-4 8 1 0.524 0.603 0.161 686.026 o
-4 8 2 206.693 205.584 2.220 0.394 o
-4 8 3 62.386 63.408 0.774 4.124 o
-4 8 4 141.604 142.507 1.617 0.822 o
-4 8 5 92.083 91.998 1.175 1.896 o
-4 8 6 136.708 139.192 1.698 0.858 o
-4 8 7 55.402 55.954 0.784 5.039 o
-4 8 8 6.007 5.495 0.311 138.471 o
-4 8 9 34.171 32.588 0.613 12.330 o
-4 8 10 1.837 1.356 0.251 272.562 o
-4 8 11 0.017 0.261 0.422 100.665 o
-4 8 12 1.130 1.246 0.422 99.940 o
-4 8 13 1.717 1.828 0.784 29.050 o
-4 8 14 159.670 154.331 3.315 0.516 o
-4 8 15 7.760 7.946 0.954 18.493 o
-4 8 16 18.566 17.560 1.155 10.854 o
-4 8 17 0.001 0.663 0.763 30.742 o
-4 9 1 87.654 85.940 0.914 2.224 o
-4 9 2 8.908 8.448 0.261 126.905 o
-4 9 3 100.314 100.416 1.356 1.568 o
-4 9 4 52.109 50.329 0.934 5.270 o
-4 9 5 16.711 16.515 0.392 42.937 o
-4 9 6 89.712 87.819 1.175 2.005 o
-4 9 7 43.379 43.287 0.964 6.590 o
-4 9 8 0.197 0.482 0.301 197.137 o
-4 9 9 14.509 14.436 0.412 48.508 o
-4 9 10 220.122 223.194 3.566 0.302 o
-4 9 11 23.454 23.537 1.195 9.170 o
-4 9 12 81.906 76.618 2.039 1.744 o
-4 9 13 0.237 0.382 0.713 35.222 o
-4 9 14 0.951 1.386 0.774 29.894 o
-4 9 15 0.025 0.422 0.733 33.322 o
-4 9 16 10.790 10.066 0.954 17.626 o
-4 10 1 0.055 0.060 0.141 905.891 o
-4 10 2 185.197 185.804 2.140 0.480 o
-4 10 3 22.592 21.468 0.402 28.375 o
-4 10 4 57.901 56.778 0.804 4.719 o
-4 10 5 24.913 24.250 0.784 15.001 o
-4 10 6 0.026 -0.241 0.522 65.674 o
-4 10 7 46.499 46.572 1.015 5.798 o
-4 10 8 95.009 94.760 1.698 1.563 o
-4 10 9 18.777 19.408 0.623 24.507 o
-4 10 10 5.912 5.696 0.382 100.564 o
-4 10 11 1.692 1.346 0.301 192.303 o
-4 10 12 16.548 16.877 1.095 12.247 o
-4 10 13 6.268 6.489 0.864 22.838 o
-4 10 14 44.225 43.518 1.567 4.169 o
-4 10 15 0.482 -0.161 0.643 43.345 o
-4 11 1 121.624 124.094 1.969 0.987 o
-4 11 2 5.089 5.133 0.321 139.845 o
-4 11 3 62.225 59.289 1.005 3.911 o
-4 11 4 0.300 0.362 0.211 401.797 o
-4 11 5 95.392 95.213 2.421 1.234 o
-4 11 6 0.532 0.944 0.311 183.979 o
-4 11 7 2.593 2.401 0.342 145.995 o
-4 11 8 0.860 1.135 0.553 58.539 o
-4 11 9 2.321 2.923 0.613 46.967 o
-4 11 10 50.583 51.635 1.627 3.501 o
-4 11 11 8.575 9.393 0.402 75.929 o
-4 11 12 38.253 39.680 1.326 5.623 o
-4 11 13 6.713 5.887 0.804 26.149 o
-4 11 14 12.065 11.191 0.914 18.519 o
-4 12 1 2.100 2.150 0.181 484.819 o
-4 12 2 0.014 0.151 0.181 548.037 o
-4 12 3 0.130 0.201 0.221 366.737 o
-4 12 4 1.140 0.944 0.492 73.627 o
-4 12 5 18.366 18.745 1.356 8.278 o
-4 12 6 0.509 0.522 0.422 100.528 o
-4 12 7 86.119 91.747 2.230 1.451 o
-4 12 8 21.202 22.271 1.125 10.489 o
-4 12 9 37.374 37.068 1.416 5.383 o
-4 12 10 24.322 25.476 1.195 8.914 o
-4 12 11 0.457 0.522 0.532 63.170 o
-4 12 12 0.025 -0.522 0.502 71.033 o
-4 13 1 48.498 48.450 3.476 1.251 o
-4 13 2 24.147 23.085 1.537 6.176 o
-4 13 3 48.435 47.425 2.622 1.974 o
-4 13 4 26.513 26.812 1.105 9.454 o
-4 13 5 73.692 75.051 2.240 1.748 o
-4 13 6 7.090 6.610 0.352 105.814 o
-4 13 7 2.164 2.351 0.643 42.866 o
-4 13 8 5.160 6.128 0.763 29.306 o
-4 13 9 0.538 1.075 0.583 52.713 o
-4 13 10 0.003 -0.030 0.522 65.674 o
-4 13 11 17.024 18.293 1.035 13.172 o
-4 14 1 25.526 24.833 1.155 9.219 o
-4 14 2 18.421 18.605 0.673 23.025 o
-4 14 3 4.717 4.259 0.372 113.425 o
-4 14 4 5.408 5.806 0.342 122.831 o
-4 14 5 22.168 21.839 0.884 14.396 o
-4 14 6 10.722 10.588 0.864 20.961 o
-4 14 7 8.051 7.534 0.804 25.420 o
-4 14 8 8.557 9.302 0.844 22.803 o
-4 15 1 8.224 7.323 0.753 28.561 o
-4 15 2 0.050 0.070 0.502 71.032 o
-4 15 3 0.545 0.271 0.211 400.914 o
-4 15 4 1.016 0.924 0.221 360.084 o
-4 15 5 35.662 38.254 1.396 5.565 o
-3 1 1 319.465 346.484 3.205 0.159 o
-3 1 2 336.857 378.640 3.426 0.139 o
-3 1 3 962.760 1039.180 10.839 0.017 o
-3 1 4 1676.530 1807.540 18.916 0.006 o
-3 1 5 5.617 5.656 0.181 284.983 o
-3 1 6 620.234 660.782 6.570 0.042 o
-3 1 7 57.471 60.384 0.733 4.728 o
-3 1 8 44.768 45.386 0.663 7.575 o
-3 1 9 214.755 224.138 2.722 0.341 o
-3 1 10 668.997 692.375 7.996 0.036 o
-3 1 11 7.873 8.157 0.321 109.409 o
-3 1 12 68.885 71.093 1.005 3.186 o
-3 1 13 9.531 9.222 0.261 117.228 o
-3 1 14 61.267 62.363 0.814 4.187 o
-3 1 15 7.504 7.032 0.281 137.298 o
-3 1 16 2.476 2.481 0.211 355.911 o
-3 1 17 23.218 23.597 0.623 19.760 o
-3 1 18 17.145 18.152 0.542 30.619 o
-3 1 19 0.238 0.382 0.311 184.640 o
-3 1 20 0.126 0.030 0.281 226.484 o
-3 2 1 1036.600 1123.440 10.427 0.015 o
-3 2 2 0.252 0.362 0.161 691.557 o
-3 2 3 2030.480 2227.050 24.310 0.004 o
-3 2 4 2.492 2.421 0.221 327.952 o
-3 2 5 150.687 159.213 1.557 0.720 o
-3 2 6 322.457 343.701 3.174 0.158 o
-3 2 7 29.026 27.696 0.432 18.578 o
-3 2 8 955.696 995.010 11.934 0.017 o
-3 2 9 0.031 0.362 0.201 443.747 o
-3 2 10 173.228 181.806 2.140 0.525 o
-3 2 11 15.969 15.350 0.362 48.777 o
-3 2 12 8.372 8.288 0.241 144.025 o
-3 2 13 94.667 95.745 1.457 1.671 o
-3 2 14 0.111 -0.040 0.502 71.031 o
-3 2 15 25.521 25.385 0.452 21.789 o
-3 2 16 0.533 0.482 0.201 441.185 o
-3 2 17 5.272 5.033 0.311 146.108 o
-3 2 18 1.464 1.406 0.291 206.321 o
-3 2 19 5.004 5.716 0.372 109.061 o
-3 2 20 0.171 -0.010 0.372 129.705 o
-3 3 1 395.393 428.918 3.888 0.104 o
-3 3 2 17.613 18.384 0.362 41.205 o
-3 3 3 398.549 421.203 4.832 0.099 o
-3 3 4 642.681 683.284 6.620 0.039 o
-3 3 5 719.177 748.771 6.801 0.032 o
-3 3 6 47.041 48.892 0.563 7.227 o
-3 3 7 345.617 368.343 3.908 0.134 o
-3 3 8 31.725 31.443 0.583 13.867 o
-3 3 9 198.573 202.088 2.783 0.392 o
-3 3 10 214.997 223.726 3.154 0.325 o
-3 3 11 62.949 63.036 1.115 3.569 o
-3 3 12 8.984 8.539 0.321 100.855 o
-3 3 13 34.371 32.930 0.573 12.605 o
-3 3 14 14.067 14.004 0.372 54.964 o
-3 3 15 1.462 1.607 0.221 351.283 o
-3 3 16 5.495 5.133 0.311 143.957 o
-3 3 17 12.283 12.597 0.894 18.954 o
-3 3 18 10.377 9.724 0.723 28.837 o
-3 3 19 7.538 7.866 0.311 117.378 o
-3 3 20 0.014 -0.372 0.593 51.015 o
-3 4 1 1373.130 1448.800 14.446 0.009 o
-3 4 2 49.255 46.893 0.573 6.986 o
-3 4 3 2308.750 2389.790 28.951 0.003 o
-3 4 4 21.499 21.156 0.321 33.256 o
-3 4 5 328.782 336.308 3.335 0.155 o
-3 4 6 0.051 0.141 0.181 547.989 o
-3 4 7 83.391 85.026 1.135 2.241 o
-3 4 8 128.856 132.833 1.728 0.937 o
-3 4 9 1.761 2.120 0.362 133.583 o
-3 4 10 0.954 1.256 0.221 359.120 o
-3 4 11 11.206 9.945 0.321 83.693 o
-3 4 12 22.976 21.367 0.613 20.958 o
-3 4 13 171.024 170.233 4.350 0.384 o
-3 4 14 0.984 0.824 0.261 259.557 o
-3 4 15 42.621 40.283 1.266 5.481 o
-3 4 16 0.114 0.241 0.311 184.745 o
-3 4 17 8.338 8.097 0.472 62.254 o
-3 4 18 0.738 0.844 0.301 196.085 o
-3 4 19 10.861 11.432 0.723 28.025 o
-3 5 1 341.272 344.947 3.395 0.145 o
-3 5 2 502.507 526.090 4.681 0.066 o
-3 5 3 114.046 113.345 1.396 1.254 o
-3 5 4 269.454 276.757 2.823 0.229 o
-3 5 5 1221.780 1252.360 13.582 0.011 o
-3 5 6 135.185 135.646 1.728 0.877 o
-3 5 7 198.515 203.223 2.562 0.401 o
-3 5 8 1.397 1.386 0.181 518.756 o
-3 5 9 75.178 73.474 1.487 2.386 o
-3 5 10 17.634 16.234 0.532 31.765 o
-3 5 11 110.358 104.896 2.140 1.134 o
-3 5 12 4.133 3.978 0.291 177.898 o
-3 5 13 24.005 22.613 0.743 16.587 o
-3 5 14 0.722 0.683 0.251 281.991 o
-3 5 15 4.567 4.500 0.502 65.895 o
-3 5 16 86.533 85.308 7.012 0.319 o
-3 5 17 0.236 0.100 0.352 144.924 o
-3 5 18 8.616 8.559 0.452 65.227 o
-3 5 19 10.726 11.261 0.402 65.235 o
-3 6 1 2228.690 2299.870 30.679 0.003 o
-3 6 2 0.389 0.281 0.151 785.150 o
-3 6 3 696.160 715.832 6.821 0.035 o
-3 6 4 15.620 16.666 0.362 47.963 o
-3 6 5 1.579 1.497 0.191 462.789 o
-3 6 6 80.629 77.793 1.286 2.327 o
-3 6 7 37.086 37.721 0.603 10.615 o
-3 6 8 133.056 128.534 2.039 0.868 o
-3 6 9 46.950 43.729 1.557 4.046 o
-3 6 10 41.723 35.411 0.904 7.750 o
-3 6 11 27.520 25.064 0.794 13.692 o
-3 6 12 18.081 15.701 0.643 25.675 o
-3 6 13 0.082 0.121 0.422 100.665 o
-3 6 14 1.446 1.527 0.432 94.990 o
-3 6 15 67.361 61.158 1.838 2.409 o
-3 6 16 6.929 6.158 0.924 19.989 o
-3 6 17 12.405 11.633 1.065 14.062 o
-3 6 18 6.557 5.957 0.894 21.389 o
-3 7 1 131.157 136.068 1.416 0.953 o
-3 7 2 166.262 172.463 1.758 0.596 o
-3 7 3 38.246 38.264 0.563 10.480 o
-3 7 4 307.417 310.963 3.345 0.176 o
-3 7 5 399.127 404.558 5.616 0.097 o
-3 7 6 148.859 145.019 2.501 0.664 o
-3 7 7 33.647 31.885 0.603 12.762 o
-3 7 8 24.923 23.778 0.653 17.921 o
-3 7 9 3.806 3.938 0.332 144.506 o
-3 7 10 2.614 2.461 0.372 124.097 o
-3 7 11 6.859 5.826 0.522 57.201 o
-3 7 12 147.939 137.183 2.391 0.701 o
-3 7 13 22.393 20.483 0.723 18.400 o
-3 7 14 20.289 17.781 1.165 10.429 o
-3 7 15 1.769 1.858 0.834 25.664 o
-3 7 16 13.150 12.969 1.065 13.816 o
-3 7 17 0.719 1.045 0.763 30.710 o
-3 7 18 5.197 4.269 0.824 25.553 o
-3 8 1 116.598 118.026 1.879 1.081 o
-3 8 2 0.095 0.201 0.151 788.692 o
-3 8 3 155.663 155.958 1.768 0.683 o
-3 8 4 2.463 2.240 0.231 304.685 o
-3 8 5 2.797 3.195 0.251 251.530 o
-3 8 6 144.469 143.823 1.547 0.807 o
-3 8 7 36.517 35.421 0.603 11.145 o
-3 8 8 303.475 301.711 4.199 0.171 o
-3 8 9 0.099 0.221 0.271 243.536 o
-3 8 10 101.612 97.382 2.260 1.222 o
-3 8 11 5.060 5.415 0.512 62.221 o
-3 8 12 7.592 7.615 0.553 49.743 o
-3 8 13 0.009 0.291 0.753 31.570 o
-3 8 14 0.382 0.442 0.774 29.944 o
-3 8 15 0.024 0.030 0.763 30.745 o
-3 8 16 0.933 0.924 0.784 29.149 o
-3 8 17 0.010 0.321 0.723 34.255 o
-3 9 1 1.011 1.266 0.191 476.940 o
-3 9 2 150.249 149.399 1.748 0.732 o
-3 9 3 5.282 4.721 0.211 258.865 o
-3 9 4 168.585 170.886 1.989 0.573 o
-3 9 5 47.322 45.075 0.723 6.922 o
-3 9 6 200.874 203.746 2.481 0.399 o
-3 9 7 6.249 6.198 0.271 162.096 o
-3 9 8 1.339 1.226 0.281 221.983 o
-3 9 9 24.946 25.094 0.553 19.905 o
-3 9 10 8.487 8.328 0.362 90.266 o
-3 9 11 7.974 7.816 0.372 90.548 o
-3 9 12 94.123 90.802 2.260 1.343 o
-3 9 13 2.841 2.672 0.824 26.126 o
-3 9 14 4.246 4.038 0.844 24.594 o
-3 9 15 0.530 0.362 0.723 34.242 o
-3 9 16 11.391 11.643 0.984 16.372 o
-3 10 1 42.968 41.679 0.492 9.117 o
-3 10 2 1.758 1.306 0.161 633.370 o
-3 10 3 0.150 0.221 0.171 613.869 o
-3 10 4 0.009 -0.090 0.432 96.042 o
-3 10 5 10.136 9.995 0.362 78.692 o
-3 10 6 11.399 10.699 0.362 71.823 o
-3 10 7 48.853 49.043 0.794 6.161 o
-3 10 8 249.643 257.952 3.215 0.252 o
-3 10 9 3.839 4.169 0.301 169.584 o
-3 10 10 58.650 57.622 1.095 4.039 o
-3 10 11 10.381 10.457 0.442 60.033 o
-3 10 12 3.909 3.144 0.784 28.596 o
-3 10 13 6.225 6.027 0.834 24.504 o
-3 10 14 3.939 3.837 0.784 28.514 o
-3 10 15 20.306 19.760 1.135 10.704 o
-3 11 1 1.806 1.728 0.151 696.650 o
-3 11 2 25.798 24.210 0.683 16.675 o
-3 11 3 2.496 2.471 0.241 279.922 o
-3 11 4 6.343 5.907 0.301 140.658 o
-3 11 5 36.526 35.471 0.723 10.128 o
-3 11 6 151.998 151.950 2.059 0.683 o
-3 11 7 49.799 50.148 0.804 5.936 o
-3 11 8 0.174 0.080 0.311 184.752 o
-3 11 9 0.508 0.693 0.321 172.903 o
-3 11 10 18.654 18.836 0.553 28.053 o
-3 11 11 91.532 95.424 1.537 1.696 o
-3 11 12 7.558 7.012 0.844 23.460 o
-3 11 13 0.957 1.216 0.683 38.319 o
-3 11 14 0.200 0.784 0.673 39.547 o
-3 12 1 64.576 62.645 1.366 3.112 o
-3 12 2 26.269 25.154 0.613 17.669 o
-3 12 3 67.752 67.306 1.537 2.669 o
-3 12 4 14.880 14.154 0.402 49.025 o
-3 12 5 16.570 14.707 1.115 12.063 o
-3 12 6 28.979 28.228 0.784 12.800 o
-3 12 7 2.772 2.873 0.342 144.341 o
-3 12 8 5.093 5.304 0.362 114.749 o
-3 12 9 2.571 2.873 0.643 42.654 o
-3 12 10 4.728 4.802 0.703 34.730 o
-3 12 11 5.447 5.756 0.342 122.749 o
-3 12 12 0.760 0.653 0.251 281.900 o
-3 12 13 19.500 21.709 1.155 10.391 o
-3 13 1 22.628 22.030 0.944 13.073 o
-3 13 2 4.277 4.852 0.342 132.085 o
-3 13 3 42.630 42.282 3.426 1.332 o
-3 13 4 0.384 0.623 0.271 242.922 o
-3 13 5 3.937 3.596 0.332 144.733 o
-3 13 6 18.887 19.308 1.105 11.445 o
-3 13 7 21.040 21.508 0.563 24.076 o
-3 13 8 0.488 0.442 0.342 153.338 o
-3 13 9 13.422 15.410 0.995 15.213 o
-3 13 10 0.500 0.362 0.542 60.859 o
-3 13 11 17.431 18.735 1.035 13.037 o
-3 14 1 59.487 57.120 1.527 3.193 o
-3 14 2 1.116 1.005 0.472 79.993 o
-3 14 3 45.876 44.864 1.396 4.566 o
-3 14 4 7.560 7.916 0.362 95.865 o
-3 14 5 0.596 0.914 0.241 305.831 o
-3 14 6 1.703 2.150 0.271 233.244 o
-3 14 7 0.642 0.894 0.241 305.665 o
-3 14 8 0.099 0.623 0.231 335.247 o
-3 14 9 1.282 1.045 0.593 50.815 o
-3 15 1 14.293 15.099 0.964 15.831 o
-3 15 2 1.370 1.537 0.573 54.337 o
-3 15 3 22.127 21.226 1.366 7.724 o
-3 15 4 18.026 17.409 0.633 25.493 o
-3 15 5 1.152 1.165 0.271 239.450 o
-3 15 6 0.107 0.402 0.553 58.697 o
-2 0 2 2696.190 2821.100 30.418 0.002 o
-2 0 4 780.844 885.422 12.979 0.022 o
-2 0 6 2.890 3.335 0.231 288.219 o
-2 0 8 13.744 13.622 0.432 49.040 o
-2 0 10 1.177 1.125 0.311 182.379 o
-2 0 12 376.129 378.168 6.620 0.100 o
-2 0 14 90.651 94.379 1.366 1.809 o
-2 0 16 18.093 17.781 0.633 25.286 o
-2 0 18 21.218 21.307 1.165 10.024 o
-2 0 20 16.870 17.128 1.085 12.351 o
-2 1 1 1342.430 1441.830 12.597 0.009 o
-2 1 2 1069.030 1168.540 10.347 0.014 o
-2 1 3 84.323 87.849 0.904 2.304 o
-2 1 4 869.060 963.537 8.810 0.021 o
-2 1 5 28.704 27.505 0.442 18.699 o
-2 1 6 179.280 192.655 1.808 0.506 o
-2 1 7 54.223 56.065 0.693 5.359 o
-2 1 8 169.554 176.190 1.718 0.577 o
-2 1 9 48.268 49.555 0.693 6.543 o
-2 1 10 641.836 661.756 8.037 0.039 o
-2 1 11 9.389 8.810 0.321 97.461 o
-2 1 12 0.015 0.040 0.181 548.085 o
-2 1 13 1.848 1.828 0.231 316.544 o
-2 1 14 9.971 9.543 0.311 94.829 o
-2 1 15 47.049 46.863 0.974 5.872 o
-2 1 16 7.997 8.318 0.342 100.000 o
-2 1 17 4.993 4.350 0.372 112.076 o
-2 1 18 5.000 5.636 0.392 99.912 o
-2 1 19 1.103 1.457 0.512 67.907 o
-2 1 20 24.128 26.551 1.356 7.371 o
-2 2 1 1428.660 1550.900 13.732 0.008 o
-2 2 2 758.816 831.075 7.353 0.028 o
-2 2 3 122.125 126.294 1.226 1.118 o
-2 2 4 0.538 0.854 0.151 775.777 o
-2 2 5 235.846 249.302 2.572 0.291 o
-2 2 6 266.766 277.661 2.833 0.231 o
-2 2 7 633.894 655.909 5.967 0.042 o
-2 2 8 31.985 32.719 0.472 14.784 o
-2 2 9 3.089 3.355 0.241 264.536 o
-2 2 10 1.285 1.035 0.221 356.864 o
-2 2 11 73.090 74.348 1.125 2.795 o
-2 2 12 72.078 71.957 1.256 2.749 o
-2 2 13 72.074 72.148 1.065 2.945 o
-2 2 14 68.746 68.632 1.005 3.255 o
-2 2 15 17.861 17.962 0.653 24.504 o
-2 2 16 24.536 24.120 0.663 17.806 o
-2 2 17 15.703 16.997 0.974 14.966 o
-2 2 18 1.695 2.341 0.342 149.173 o
-2 2 19 9.784 9.503 0.402 71.428 o
-2 2 20 21.462 22.171 0.834 15.671 o
-2 3 1 1249.640 1389.690 12.868 0.010 o
-2 3 2 483.592 536.939 4.822 0.068 o
-2 3 3 635.452 686.508 6.590 0.040 o
-2 3 4 148.652 156.410 1.537 0.742 o
-2 3 5 0.195 0.141 0.121 1230.690 o
-2 3 6 369.355 368.414 3.496 0.126 o
-2 3 7 43.593 45.858 0.553 8.227 o
-2 3 8 0.987 2.049 0.301 193.660 o
-2 3 9 0.061 0.050 0.191 491.876 o
-2 3 10 35.092 34.225 0.763 10.320 o
-2 3 11 161.895 167.511 2.853 0.532 o
-2 3 12 37.470 34.909 0.683 10.278 o
-2 3 13 34.822 34.949 0.623 11.595 o
-2 3 14 9.984 9.553 0.301 97.902 o
-2 3 15 98.693 98.648 1.527 1.544 o
-2 3 16 20.021 19.308 0.703 20.665 o
-2 3 17 82.204 85.609 2.079 1.638 o
-2 3 18 14.142 13.773 0.553 36.392 o
-2 3 19 2.198 2.079 0.392 113.474 o
-2 3 20 17.232 18.735 1.055 12.691 o
-2 4 1 4.962 5.847 0.271 179.417 o
-2 4 2 402.517 432.756 5.073 0.095 o
-2 4 3 136.857 138.097 1.607 0.873 o
-2 4 4 260.591 287.265 2.994 0.229 o
-2 4 5 463.429 497.510 4.581 0.076 o
-2 4 6 0.868 0.522 0.141 881.979 o
-2 4 7 187.376 187.160 2.069 0.475 o
-2 4 8 61.142 64.433 0.713 4.269 o
-2 4 9 224.249 225.565 3.807 0.286 o
-2 4 10 1.626 1.205 0.261 254.843 o
-2 4 11 149.011 147.611 1.919 0.726 o
-2 4 12 5.084 5.294 0.281 171.624 o
-2 4 13 22.755 20.724 0.784 16.621 o
-2 4 14 20.120 18.755 0.824 17.119 o
-2 4 15 5.218 4.561 0.332 134.041 o
-2 4 16 19.094 17.751 1.065 12.233 o
-2 4 17 43.474 43.498 3.576 1.228 o
-2 4 18 1.593 1.758 0.321 169.185 o
-2 4 19 58.770 63.378 1.808 2.662 o
-2 5 1 377.025 389.951 4.068 0.116 o
-2 5 2 7.410 6.911 0.211 189.688 o
-2 5 3 128.017 134.883 1.296 1.004 o
-2 5 4 65.660 66.713 0.743 3.811 o
-2 5 5 299.746 319.200 3.044 0.182 o
-2 5 6 0.558 0.964 0.151 773.636 o
-2 5 7 0.778 0.984 0.171 600.404 o
-2 5 8 294.101 292.770 3.456 0.191 o
-2 5 9 1.183 1.095 0.271 239.472 o
-2 5 10 1.479 1.788 0.332 159.608 o
-2 5 11 9.467 8.358 0.442 65.357 o
-2 5 12 0.866 0.713 0.251 281.308 o
-2 5 13 70.161 67.276 1.949 2.144 o
-2 5 14 7.317 6.479 0.432 76.661 o
-2 5 15 140.582 128.132 2.311 0.777 o
-2 5 16 2.688 2.441 0.492 72.039 o
-2 5 17 39.522 40.203 1.617 4.349 o
-2 5 18 12.190 12.808 0.452 51.102 o
-2 5 19 0.903 1.095 0.693 37.230 o
-2 6 1 88.661 87.287 0.914 2.174 o
-2 6 2 146.507 149.318 1.396 0.791 o
-2 6 3 218.844 216.132 1.999 0.364 o
-2 6 4 289.025 297.933 2.833 0.201 o
-2 6 5 0.853 1.095 0.161 672.088 o
-2 6 6 24.690 23.657 0.412 24.411 o
-2 6 7 146.101 149.419 2.130 0.712 o
-2 6 8 4.788 5.123 0.271 185.835 o
-2 6 9 114.707 106.875 2.823 0.899 o
-2 6 10 72.514 64.784 1.416 2.689 o
-2 6 11 21.555 17.580 0.703 20.267 o
-2 6 12 34.665 29.785 0.854 10.132 o
-2 6 13 72.856 65.990 1.356 2.723 o
-2 6 14 66.271 60.364 1.286 3.205 o
-2 6 15 18.600 18.765 1.175 10.463 o
-2 6 16 0.069 -0.141 0.763 30.745 o
-2 6 17 49.227 48.018 1.668 3.548 o
-2 6 18 0.159 0.603 0.723 34.250 o
-2 7 1 51.093 49.696 0.633 6.307 o
-2 7 2 62.146 61.037 0.723 4.310 o
-2 7 3 14.363 13.471 0.281 66.985 o
-2 7 4 336.972 345.098 3.637 0.146 o
-2 7 5 128.513 130.483 1.366 1.009 o
-2 7 6 181.111 179.867 2.029 0.509 o
-2 7 7 4.596 5.023 0.311 151.403 o
-2 7 8 188.381 182.228 3.626 0.388 o
-2 7 9 1.413 1.145 0.201 426.337 o
-2 7 10 98.234 90.461 1.658 1.564 o
-2 7 11 27.773 25.415 0.804 13.379 o
-2 7 12 33.681 30.418 1.025 8.692 o
-2 7 13 14.766 13.431 0.643 29.442 o
-2 7 14 47.835 44.954 1.607 3.832 o
-2 7 15 73.864 70.169 2.009 1.978 o
-2 7 16 0.129 -0.271 0.743 32.429 o
-2 7 17 5.760 5.907 0.874 22.514 o
-2 7 18 8.096 8.569 0.894 20.736 o
-2 8 1 6.294 6.228 0.241 187.472 o
-2 8 2 696.447 720.443 7.876 0.034 o
-2 8 3 23.477 22.110 0.442 25.597 o
-2 8 4 176.259 178.732 1.879 0.537 o
-2 8 5 1.522 1.537 0.211 383.539 o
-2 8 6 1.074 0.753 0.201 434.375 o
-2 8 7 27.750 26.541 0.462 19.357 o
-2 8 8 55.997 54.257 0.713 5.219 o
-2 8 9 0.064 0.171 0.201 443.852 o
-2 8 10 124.630 123.481 2.100 0.938 o
-2 8 11 26.632 25.405 0.844 13.110 o
-2 8 12 104.441 99.663 1.858 1.325 o
-2 8 13 7.924 7.323 0.954 18.521 o
-2 8 14 15.181 15.993 1.135 11.821 o
-2 8 15 23.809 22.110 1.246 8.673 o
-2 8 16 13.238 13.632 1.055 13.970 o
-2 8 17 0.749 0.995 0.693 37.248 o
-2 9 1 9.100 8.589 0.221 143.616 o
-2 9 2 1.329 1.236 0.161 653.133 o
-2 9 3 41.468 39.690 0.763 8.243 o
-2 9 4 76.970 79.029 0.924 2.716 o
-2 9 5 61.181 61.037 0.743 4.358 o
-2 9 6 140.601 139.564 1.527 0.851 o
-2 9 7 0.299 0.372 0.221 366.159 o
-2 9 8 190.316 192.364 2.110 0.457 o
-2 9 9 78.217 77.743 0.944 2.677 o
-2 9 10 27.152 26.731 0.492 19.122 o
-2 9 11 2.579 3.164 0.472 77.831 o
-2 9 12 55.172 52.318 1.718 3.116 o
-2 9 13 25.534 25.425 1.296 7.797 o
-2 9 14 9.113 7.574 0.934 18.999 o
-2 9 15 1.514 1.537 0.743 32.300 o
-2 9 16 4.472 5.023 0.804 26.888 o
-2 10 1 41.417 39.540 0.583 9.313 o
-2 10 2 96.018 92.932 1.256 1.762 o
-2 10 3 13.479 12.748 0.311 67.929 o
-2 10 4 62.195 59.902 1.336 3.332 o
-2 10 5 71.122 70.571 0.864 3.235 o
-2 10 6 31.016 30.850 0.553 14.711 o
-2 10 7 57.646 57.551 0.763 4.786 o
-2 10 8 1.952 1.919 0.211 372.644 o
-2 10 9 81.873 82.565 1.005 2.412 o
-2 10 10 18.805 19.448 0.422 34.296 o
-2 10 11 0.111 0.563 0.352 144.889 o
-2 10 12 12.232 12.868 1.025 14.966 o
-2 10 13 6.944 6.208 0.854 23.218 o
-2 10 14 31.745 30.468 1.356 6.462 o
-2 10 15 5.801 5.234 0.804 26.516 o
-2 11 1 24.256 22.994 0.472 23.456 o
-2 11 2 0.002 0.131 0.181 548.062 o
-2 11 3 245.615 247.354 2.863 0.272 o
-2 11 4 22.924 21.930 0.412 27.328 o
-2 11 5 42.582 41.669 0.844 7.423 o
-2 11 6 1.227 1.125 0.241 301.276 o
-2 11 7 0.330 0.452 0.231 334.874 o
-2 11 8 42.078 42.654 0.623 8.576 o
-2 11 9 16.476 16.716 0.452 38.506 o
-2 11 10 8.007 8.388 0.352 96.022 o
-2 11 11 23.974 25.466 0.723 16.389 o
-2 11 12 16.546 16.625 1.105 12.087 o
-2 11 13 44.962 47.224 1.637 3.836 o
-2 11 14 0.292 0.362 0.663 40.758 o
-2 12 1 17.036 16.344 0.352 45.648 o
-2 12 2 0.478 0.342 0.181 545.124 o
-2 12 3 7.992 7.022 0.301 122.051 o
-2 12 4 19.932 20.342 0.452 30.481 o
-2 12 5 87.598 85.870 1.507 1.890 o
-2 12 6 4.055 3.637 0.352 129.650 o
-2 12 7 38.925 40.072 0.884 7.954 o
-2 12 8 7.532 7.454 0.402 83.304 o
-2 12 9 80.025 84.705 2.441 1.457 o
-2 12 10 6.510 6.781 0.372 99.758 o
-2 12 11 5.121 6.248 0.362 112.313 o
-2 12 12 3.058 3.566 0.774 29.463 o
-2 12 13 0.562 0.784 0.683 38.373 o
-2 13 1 53.787 52.830 1.557 3.482 o
-2 13 2 5.218 5.515 0.301 152.198 o
-2 13 3 51.719 50.831 0.804 5.663 o
-2 13 4 10.781 9.453 0.372 74.687 o
-2 13 5 24.759 24.069 0.623 18.649 o
-2 13 6 39.963 40.243 0.834 8.060 o
-2 13 7 13.236 13.662 0.884 18.826 o
-2 13 8 1.343 1.256 0.301 193.804 o
-2 13 9 25.155 25.305 1.306 7.756 o
-2 13 10 2.961 2.401 0.271 221.523 o
-2 13 11 3.884 4.239 0.301 168.935 o
-2 14 1 11.066 10.447 0.422 61.724 o
-2 14 2 29.435 28.700 0.553 16.047 o
-2 14 3 2.359 2.572 0.301 185.811 o
-2 14 4 7.817 7.956 0.472 63.592 o
-2 14 5 12.454 12.246 0.713 27.369 o
-2 14 6 0.462 0.573 0.281 225.831 o
-2 14 7 43.368 43.558 1.567 4.214 o
-2 14 8 1.568 1.828 0.261 253.026 o
-2 14 9 5.408 6.238 0.311 140.270 o
-2 15 1 6.307 6.399 0.321 126.570 o
-2 15 2 0.238 0.000 0.181 547.690 o
-2 15 3 11.864 11.854 0.402 60.659 o
-2 15 4 13.024 13.481 1.095 13.135 o
-2 15 5 0.384 0.794 0.221 364.976 o
-2 15 6 17.468 17.620 1.426 7.701 o
-1 1 1 58.550 73.865 0.703 4.116 o
-1 1 3 2.144 2.220 0.171 532.602 o
-1 1 4 1911.680 2044.280 19.398 0.004 o
-1 1 5 398.937 432.364 3.898 0.102 o
-1 1 6 171.395 176.301 1.818 0.563 o
-1 1 7 7.291 7.735 0.211 184.349 o
-1 1 8 155.964 158.018 1.517 0.698 o
-1 1 9 76.136 75.945 0.964 2.782 o
-1 1 10 303.849 315.704 3.174 0.179 o
-1 1 11 98.766 98.598 1.256 1.651 o
-1 1 12 169.529 174.412 2.200 0.547 o
-1 1 13 21.640 20.985 0.553 24.142 o
-1 1 14 16.101 15.802 0.542 33.303 o
-1 1 15 18.059 17.931 0.452 34.899 o
-1 1 16 140.053 146.124 2.190 0.746 o
-1 1 17 0.031 0.121 0.321 173.414 o
-1 1 18 3.953 3.878 0.452 81.813 o
-1 1 19 3.601 4.048 0.332 145.355 o
-1 1 20 15.746 16.877 0.472 38.089 o
-1 2 1 387.544 424.860 3.888 0.107 o
-1 2 2 2587.450 2734.670 24.722 0.002 o
-1 2 3 19.534 18.263 0.342 38.583 o
-1 2 4 518.895 567.458 5.194 0.060 o
-1 2 5 849.646 952.115 9.131 0.022 o
-1 2 6 1486.930 1578.040 16.354 0.007 o
-1 2 7 0.002 0.402 0.201 443.765 o
-1 2 8 589.473 618.550 6.188 0.047 o
-1 2 9 67.475 68.702 0.954 3.382 o
-1 2 10 0.041 0.020 0.171 614.448 o
-1 2 11 61.942 59.390 1.105 3.753 o
-1 2 12 55.989 54.548 0.884 4.823 o
-1 2 13 299.069 306.010 3.576 0.180 o
-1 2 14 10.547 10.347 0.311 88.899 o
-1 2 15 22.579 22.502 0.623 20.543 o
-1 2 16 1.054 1.135 0.251 279.202 o
-1 2 17 14.751 14.777 0.512 38.133 o
-1 2 18 50.325 52.800 1.808 3.111 o
-1 2 19 1.033 0.904 0.281 223.867 o
-1 2 20 8.950 9.604 0.422 69.444 o
-1 3 1 319.210 358.890 3.727 0.150 o
-1 3 2 32.556 31.182 0.452 15.116 o
-1 3 3 1443.610 1560.040 15.269 0.008 o
-1 3 4 1327.730 1498.980 15.942 0.009 o
-1 3 5 142.758 148.233 2.210 0.723 o
-1 3 6 226.612 239.126 2.260 0.321 o
-1 3 7 170.133 179.696 1.808 0.562 o
-1 3 8 377.159 404.467 4.018 0.113 o
-1 3 9 941.861 993.021 11.281 0.018 o
-1 3 10 1.225 1.216 0.201 428.856 o
-1 3 11 161.430 154.070 2.652 0.576 o
-1 3 12 29.843 29.404 0.573 15.346 o
-1 3 13 58.047 55.924 0.814 4.724 o
-1 3 14 31.908 29.946 0.502 15.154 o
-1 3 15 41.496 41.066 0.763 8.103 o
-1 3 16 12.189 11.914 0.362 66.334 o
-1 3 17 29.626 29.303 0.683 13.823 o
-1 3 18 0.460 0.532 0.382 122.791 o
-1 3 19 3.871 3.888 0.422 93.178 o
-1 3 20 0.000 -0.422 0.563 56.627 o
-1 4 1 2172.080 2323.430 26.701 0.003 o
-1 4 2 493.283 558.015 5.605 0.063 o
-1 4 3 292.607 313.303 3.667 0.181 o
-1 4 4 412.308 421.374 4.963 0.095 o
-1 4 5 52.296 55.854 0.743 5.469 o
-1 4 6 34.495 30.709 0.412 14.671 o
-1 4 7 292.365 301.248 2.963 0.195 o
-1 4 8 109.618 114.611 1.296 1.330 o
-1 4 9 66.380 66.030 0.995 3.466 o
-1 4 10 5.197 4.440 0.241 220.114 o
-1 4 11 454.216 448.708 5.394 0.080 o
-1 4 12 0.942 1.045 0.211 394.630 o
-1 4 13 278.872 285.688 3.556 0.204 o
-1 4 14 1.018 1.145 0.221 359.037 o
-1 4 15 44.039 42.794 0.974 6.488 o
-1 4 16 21.297 20.634 0.482 27.337 o
-1 4 17 2.105 1.617 0.261 249.553 o
-1 4 18 29.300 29.966 2.341 2.841 o
-1 4 19 5.415 4.922 0.311 145.418 o
-1 5 1 105.380 106.002 1.055 1.528 o
-1 5 2 16.500 17.268 0.301 50.026 o
-1 5 3 89.609 95.303 1.015 1.990 o
-1 5 4 70.897 62.464 0.713 3.640 o
-1 5 5 105.049 107.719 1.175 1.485 o
-1 5 6 141.337 145.702 1.838 0.786 o
-1 5 7 541.329 553.776 6.359 0.055 o
-1 5 8 1.626 2.120 0.211 376.827 o
-1 5 9 462.083 474.355 7.574 0.068 o
-1 5 10 1.494 1.597 0.301 192.598 o
-1 5 11 219.636 222.742 4.058 0.285 o
-1 5 12 25.133 22.633 1.216 8.785 o
-1 5 13 6.010 5.194 0.502 63.181 o
-1 5 14 4.203 3.727 0.482 72.236 o
-1 5 15 138.153 131.447 2.321 0.780 o
-1 5 16 3.369 3.184 0.804 27.307 o
-1 5 17 20.431 19.338 1.165 10.291 o
-1 5 18 9.766 9.383 0.934 18.642 o
-1 6 1 174.762 191.480 1.738 0.527 o
-1 6 2 145.593 159.565 1.477 0.757 o
-1 6 3 410.968 422.479 3.817 0.100 o
-1 6 4 44.600 41.237 0.553 8.511 o
-1 6 5 34.389 33.361 0.542 12.817 o
-1 6 6 404.123 411.529 4.541 0.101 o
-1 6 7 73.212 74.187 1.015 2.900 o
-1 6 8 19.977 19.408 0.422 32.529 o
-1 6 9 7.196 6.911 0.332 113.476 o
-1 6 10 29.313 27.746 1.075 9.215 o
-1 6 11 264.285 260.333 4.671 0.204 o
-1 6 12 1.425 0.995 0.261 256.809 o
-1 6 13 316.874 306.824 5.394 0.146 o
-1 6 14 1.448 1.216 0.462 83.226 o
-1 6 15 0.031 0.070 0.743 32.429 o
-1 6 16 15.442 14.536 1.075 13.046 o
-1 6 17 0.812 0.784 0.723 34.216 o
-1 6 18 1.580 1.818 0.703 36.050 o
-1 7 1 47.564 49.153 0.583 7.049 o
-1 7 2 327.407 335.876 3.094 0.158 o
-1 7 3 7.301 6.861 0.241 167.682 o
-1 7 4 181.146 178.380 1.939 0.517 o
-1 7 5 0.665 0.743 0.191 485.855 o
-1 7 6 4.875 5.354 0.271 183.413 o
-1 7 7 168.888 169.852 2.110 0.565 o
-1 7 8 47.069 43.929 0.583 7.604 o
-1 7 9 104.789 104.495 1.457 1.427 o
-1 7 10 145.393 143.120 2.742 0.653 o
-1 7 11 139.945 137.374 3.195 0.626 o
-1 7 12 5.916 6.098 0.321 130.469 o
-1 7 13 1.542 1.165 0.663 40.591 o
-1 7 14 38.682 36.205 1.467 5.097 o
-1 7 15 74.567 71.535 2.009 1.950 o
-1 7 16 20.080 18.424 1.145 10.701 o
-1 7 17 2.148 2.742 0.743 32.124 o
-1 7 18 2.315 3.436 0.733 32.903 o
-1 8 1 5.288 6.058 0.241 205.031 o
-1 8 2 44.005 44.522 0.573 8.196 o
-1 8 3 11.407 10.548 0.332 78.712 o
-1 8 4 317.957 324.464 3.526 0.163 o
-1 8 5 0.432 0.583 0.191 488.947 o
-1 8 6 323.260 326.503 3.164 0.163 o
-1 8 7 149.951 151.950 1.617 0.740 o
-1 8 8 149.848 148.535 1.517 0.761 o
-1 8 9 6.834 6.911 0.301 132.122 o
-1 8 10 72.732 72.961 1.055 2.909 o
-1 8 11 47.543 46.823 1.316 4.639 o
-1 8 12 25.620 23.125 0.894 12.943 o
-1 8 13 41.587 40.203 1.537 4.511 o
-1 8 14 18.304 18.414 1.155 10.829 o
-1 8 15 0.960 1.326 0.743 32.364 o
-1 8 16 4.606 4.460 0.804 26.923 o
-1 8 17 0.957 0.894 0.673 39.487 o
-1 9 1 50.627 48.048 0.944 5.513 o
-1 9 2 127.700 125.510 1.647 0.992 o
-1 9 3 0.709 0.924 0.191 484.202 o
-1 9 4 410.752 424.850 4.350 0.098 o
-1 9 5 111.363 112.822 1.155 1.353 o
-1 9 6 20.262 19.850 0.352 35.185 o
-1 9 7 11.878 11.854 0.281 84.017 o
-1 9 8 128.472 130.101 1.477 0.994 o
-1 9 9 53.360 52.579 0.713 5.611 o
-1 9 10 56.319 55.562 0.733 5.074 o
-1 9 11 3.613 3.596 0.291 184.245 o
-1 9 12 0.304 0.121 0.291 211.017 o
-1 9 13 4.740 4.691 0.382 107.326 o
-1 9 14 55.938 54.940 1.768 2.952 o
-1 9 15 0.168 -0.522 0.653 42.030 o
-1 9 16 14.156 12.467 0.964 16.203 o
-1 10 1 160.139 160.569 2.170 0.614 o
-1 10 2 9.003 8.318 0.281 117.558 o
-1 10 3 47.268 46.752 0.643 7.095 o
-1 10 4 41.713 40.102 0.593 9.115 o
-1 10 5 4.391 4.541 0.221 265.001 o
-1 10 6 438.154 452.767 4.932 0.085 o
-1 10 7 28.063 28.429 0.432 19.001 o
-1 10 8 20.297 19.689 0.362 34.774 o
-1 10 9 0.376 0.211 0.191 490.596 o
-1 10 10 10.998 10.920 0.311 84.680 o
-1 10 11 28.760 29.072 0.703 13.914 o
-1 10 12 0.948 0.964 0.281 224.055 o
-1 10 13 1.107 1.718 0.281 221.922 o
-1 10 14 2.323 1.748 0.723 33.975 o
-1 10 15 1.933 2.210 0.703 35.957 o
-1 11 1 32.990 30.277 0.693 12.267 o
-1 11 2 64.732 62.996 1.195 3.350 o
-1 11 3 81.108 81.671 1.416 2.159 o
-1 11 4 164.477 164.718 2.843 0.529 o
-1 11 5 41.215 41.328 0.603 9.033 o
-1 11 6 0.367 0.301 0.171 612.095 o
-1 11 7 42.094 41.428 0.542 9.124 o
-1 11 8 11.256 11.080 0.281 90.269 o
-1 11 9 24.348 24.853 0.542 20.677 o
-1 11 10 18.059 18.454 0.834 17.737 o
-1 11 11 1.909 1.457 0.261 251.826 o
-1 11 12 0.017 0.030 0.412 105.641 o
-1 11 13 3.152 3.657 0.763 30.201 o
-1 11 14 1.298 1.979 0.683 38.223 o
-1 12 1 211.657 210.536 3.134 0.342 o
-1 12 2 1.917 2.160 0.211 370.997 o
-1 12 3 21.012 20.312 0.502 27.010 o
-1 12 4 1.798 1.788 0.201 412.610 o
-1 12 5 0.536 0.623 0.231 333.792 o
-1 12 6 53.364 52.941 2.009 2.661 o
-1 12 7 0.172 0.171 0.201 443.647 o
-1 12 8 12.999 12.025 0.703 27.678 o
-1 12 9 1.524 1.838 0.402 109.279 o
-1 12 10 0.763 0.884 0.251 281.389 o
-1 12 11 36.954 38.836 0.944 8.012 o
-1 12 12 1.157 0.834 0.452 87.247 o
-1 12 13 5.311 6.610 0.824 25.241 o
-1 13 1 17.225 15.450 0.733 22.365 o
-1 13 2 10.718 9.935 0.362 76.283 o
-1 13 3 19.941 18.635 0.452 31.623 o
-1 13 4 7.247 6.580 0.311 124.471 o
-1 13 5 36.152 35.130 0.884 8.948 o
-1 13 6 0.296 0.422 0.221 366.090 o
-1 13 7 13.835 13.140 0.502 41.821 o
-1 13 8 2.208 1.848 0.301 188.685 o
-1 13 9 25.430 26.169 0.743 15.181 o
-1 13 10 6.179 6.419 0.291 146.675 o
-1 13 11 10.200 10.357 0.392 70.667 o
-1 14 1 29.247 27.615 0.723 13.703 o
-1 14 2 13.804 12.778 0.372 57.669 o
-1 14 3 0.286 0.241 0.221 366.382 o
-1 14 4 25.456 24.632 0.633 17.842 o
-1 14 5 21.253 20.744 0.603 22.781 o
-1 14 6 3.029 2.893 0.241 269.064 o
-1 14 7 2.254 2.692 0.301 186.073 o
-1 14 8 1.271 1.979 0.281 220.479 o
-1 14 9 1.360 1.286 0.412 104.594 o
-1 15 1 1.956 1.627 0.261 250.763 o
-1 15 2 28.762 28.982 0.844 11.916 o
-1 15 3 7.297 6.580 0.392 89.187 o
-1 15 4 5.827 5.093 0.261 183.057 o
-1 15 5 2.142 2.220 0.211 365.881 o
-1 15 6 0.002 0.040 0.332 163.069 o
0 0 2 302.807 337.403 3.556 0.168 o
0 0 4 141.164 158.118 1.838 0.750 o
0 0 6 0.789 0.442 0.251 282.199 o
0 0 8 136.179 144.878 1.637 0.849 o
0 0 10 364.983 366.093 4.149 0.124 o
0 0 12 6.155 5.676 0.301 143.306 o
0 0 14 351.650 354.500 6.068 0.115 o
0 0 16 3.629 2.953 0.412 99.189 o
0 0 18 0.023 -0.231 0.613 47.724 o
0 0 20 0.698 0.884 0.623 46.132 o
0 1 1 53.357 59.209 0.603 5.469 o
0 1 2 5186.690 5004.490 61.228 0.001 o
0 1 3 3316.040 3458.170 36.215 0.001 o
0 1 4 4252.830 4393.800 48.279 0.001 o
0 1 5 77.525 85.087 1.336 2.272 o
0 1 6 251.486 264.070 3.064 0.250 o
0 1 7 99.815 96.739 0.964 1.753 o
0 1 8 49.126 50.700 0.593 6.640 o
0 1 9 4.241 4.460 0.201 308.498 o
0 1 10 182.200 181.163 1.818 0.515 o
0 1 11 127.461 126.304 1.477 1.021 o
0 1 12 13.906 13.692 0.301 65.617 o
0 1 13 15.244 14.938 0.321 55.706 o
0 1 14 36.511 37.812 0.673 10.223 o
0 1 15 5.134 5.214 0.321 139.242 o
0 1 16 13.109 12.467 0.402 56.033 o
0 1 17 17.894 17.188 0.542 30.310 o
0 1 18 13.410 12.899 0.462 47.101 o
0 1 19 0.027 -0.131 0.613 47.724 o
0 1 20 17.646 18.464 0.482 33.292 o
0 2 1 106.371 124.676 1.507 1.252 o
0 2 2 1500.630 1608.630 16.073 0.007 o
0 2 3 168.974 185.473 2.110 0.536 o
0 2 4 29.133 28.299 0.593 15.662 o
0 2 5 526.984 575.856 6.047 0.056 o
0 2 6 840.644 881.032 8.348 0.023 o
0 2 7 777.986 832.833 7.836 0.027 o
0 2 8 34.601 34.567 0.583 12.117 o
0 2 9 80.527 79.129 1.025 2.505 o
0 2 10 122.990 126.394 1.738 1.013 o
0 2 11 20.674 20.001 0.502 27.547 o
0 2 12 75.036 72.801 0.864 2.985 o
0 2 13 0.278 0.372 0.181 546.573 o
0 2 14 71.863 74.006 1.045 2.934 o
0 2 15 4.158 3.817 0.301 168.429 o
0 2 16 0.204 0.201 0.241 308.094 o
0 2 17 18.171 18.353 0.542 29.338 o
0 2 18 18.108 18.102 0.643 24.699 o
0 2 19 4.170 4.521 0.342 133.579 o
0 2 20 4.140 3.817 0.291 178.570 o
0 3 1 643.474 697.378 7.906 0.037 o
0 3 2 1279.970 1394.980 12.939 0.010 o
0 3 3 1432.410 1608.920 16.344 0.008 o
0 3 4 646.031 689.201 7.574 0.038 o
0 3 5 225.643 229.623 2.391 0.327 o
0 3 6 10.938 10.699 0.241 105.157 o
0 3 7 194.925 200.621 1.939 0.441 o
0 3 8 7.348 6.841 0.251 159.785 o
0 3 9 313.298 321.500 3.637 0.165 o
0 3 10 22.450 21.648 0.442 26.989 o
0 3 11 155.341 153.929 1.658 0.700 o
0 3 12 3.167 3.044 0.191 391.840 o
0 3 13 45.530 45.306 0.573 7.806 o
0 3 14 0.316 0.522 0.191 490.018 o
0 3 15 13.986 13.441 0.573 35.182 o
0 3 16 1.819 1.426 0.321 168.981 o
0 3 17 12.075 11.864 0.452 52.460 o
0 3 18 2.194 2.662 0.311 175.285 o
0 3 19 0.881 0.924 0.261 259.790 o
0 4 0 437.278 487.484 6.861 0.074 o
0 4 1 179.423 191.580 1.818 0.507 o
0 4 2 5.376 5.294 0.221 235.516 o
0 4 3 153.177 161.443 1.537 0.702 o
0 4 4 23.531 24.150 0.352 27.143 o
0 4 5 895.279 944.661 9.131 0.020 o
0 4 6 370.906 384.245 3.486 0.122 o
0 4 7 1326.530 1400.410 15.541 0.009 o
0 4 8 69.575 68.973 0.934 3.284 o
0 4 9 87.730 85.800 1.165 2.088 o
0 4 10 0.340 0.191 0.191 490.834 o
0 4 11 38.894 38.977 0.583 10.055 o
0 4 12 0.913 0.834 0.171 599.092 o
0 4 13 4.134 3.938 0.211 297.350 o
0 4 14 3.044 2.913 0.191 398.212 o
0 4 15 11.072 10.849 0.311 84.463 o
0 4 16 5.631 5.535 0.382 102.067 o
0 4 17 16.595 17.268 0.512 33.692 o
0 4 18 17.891 17.399 0.492 33.090 o
0 4 19 8.212 8.458 0.362 91.291 o
0 5 1 595.382 632.794 5.756 0.047 o
0 5 2 317.191 345.329 3.345 0.159 o
0 5 3 544.887 587.057 5.445 0.055 o
0 5 4 295.525 310.350 2.974 0.189 o
0 5 5 269.707 269.223 2.672 0.235 o
0 5 6 29.827 28.288 0.492 16.895 o
0 5 7 103.534 105.097 1.236 1.514 o
0 5 8 0.013 0.512 0.191 491.505 o
0 5 9 489.500 502.342 6.821 0.064 o
0 5 10 124.047 126.786 1.658 1.017 o
0 5 11 70.493 71.897 1.266 2.801 o
0 5 12 5.655 5.465 0.291 156.316 o
0 5 13 14.949 15.209 0.583 32.302 o
0 5 14 34.461 33.864 0.824 9.975 o
0 5 15 29.386 29.474 1.848 4.226 o
0 5 16 1.293 0.452 0.713 35.160 o
0 6 0 103.689 102.636 1.216 1.539 o
0 6 1 184.204 194.051 1.758 0.490 o
0 6 2 327.644 333.997 2.994 0.159 o
0 6 3 70.473 72.389 0.864 3.222 o
0 6 4 0.033 0.321 0.191 491.704 o
0 6 5 1364.370 1418.970 18.414 0.008 o
0 6 6 37.496 38.545 0.603 10.374 o
0 6 7 107.729 107.287 1.768 1.267 o
0 6 8 42.638 43.508 0.663 8.166 o
0 6 9 75.211 72.951 0.914 2.930 o
0 6 10 27.329 25.998 0.663 15.887 o
0 6 11 0.167 0.201 0.201 443.622 o
0 6 12 128.691 126.806 3.144 0.703 o
0 6 13 29.786 28.449 0.703 13.635 o
0 6 14 4.642 5.023 0.311 151.049 o
0 6 15 2.678 3.747 0.804 27.375 o
0 6 16 21.590 21.779 1.195 9.555 o
0 6 17 2.705 2.321 0.723 33.847 o
0 7 1 111.107 112.320 1.115 1.369 o
0 7 2 445.653 458.734 4.450 0.084 o
0 7 3 135.953 138.087 1.929 0.833 o
0 7 4 69.763 69.456 1.095 3.079 o
0 7 5 69.746 71.133 0.924 3.230 o
0 7 6 173.555 176.140 1.949 0.547 o
0 7 7 25.487 26.129 0.462 21.268 o
0 7 8 237.975 244.641 2.511 0.293 o
0 7 9 149.616 152.282 2.270 0.671 o
0 7 10 11.158 10.658 0.321 82.058 o
0 7 11 11.033 10.920 0.352 75.057 o
0 7 12 8.428 7.544 0.342 99.746 o
0 7 13 6.218 6.007 0.402 90.758 o
0 7 14 2.695 3.205 0.352 136.343 o
0 7 15 5.325 5.565 0.382 103.265 o
0 7 16 51.636 50.650 1.678 3.368 o
0 7 17 9.262 9.734 0.904 19.870 o
0 7 18 6.939 7.353 0.804 25.839 o
0 8 0 449.248 462.230 5.364 0.080 o
0 8 1 3.776 3.606 0.211 310.704 o
0 8 2 501.613 521.680 5.374 0.065 o
0 8 3 3.452 3.657 0.241 256.272 o
0 8 4 0.349 0.191 0.201 443.040 o
0 8 5 71.131 71.665 0.874 3.196 o
0 8 6 0.991 1.447 0.181 528.014 o
0 8 7 39.931 39.459 0.522 10.071 o
0 8 8 33.967 33.402 0.482 13.585 o
0 8 9 0.007 0.020 0.171 614.469 o
0 8 10 10.434 10.367 0.392 69.802 o
0 8 11 33.137 34.346 0.874 9.765 o
0 8 12 170.311 172.072 2.240 0.546 o
0 8 13 6.541 6.299 0.392 92.739 o
0 8 14 28.409 27.354 1.145 8.694 o
0 8 15 4.002 4.068 0.352 128.888 o
0 8 16 12.398 12.748 0.984 16.024 o
0 8 17 6.243 6.469 0.804 26.205 o
0 9 1 5.127 5.133 0.271 181.710 o
0 9 2 332.712 340.657 3.456 0.151 o
0 9 3 2.090 2.069 0.201 402.716 o
0 9 4 185.045 188.546 1.899 0.489 o
0 9 5 4.787 4.922 0.221 252.122 o
0 9 6 72.528 72.881 0.874 3.095 o
0 9 7 2.969 2.592 0.191 406.098 o
0 9 8 75.908 76.939 1.205 2.564 o
0 9 9 7.492 7.404 0.241 161.216 o
0 9 10 40.439 40.353 0.553 9.632 o
0 9 11 21.087 21.739 0.452 28.150 o
0 9 12 11.793 11.603 0.462 52.009 o
0 9 13 24.557 24.411 0.623 18.668 o
0 9 14 2.475 2.461 0.301 185.446 o
0 9 15 1.572 1.678 0.291 205.207 o
0 9 16 18.988 19.067 1.105 11.448 o
0 10 0 175.275 179.114 3.546 0.424 o
0 10 1 11.102 10.447 0.382 69.316 o
0 10 2 326.445 331.004 4.099 0.150 o
0 10 3 45.143 44.331 0.563 8.021 o
0 10 4 2.383 2.401 0.201 391.276 o
0 10 5 23.306 22.934 0.382 27.255 o
0 10 6 22.930 22.271 0.372 28.475 o
0 10 7 15.363 14.847 0.342 53.265 o
0 10 8 0.348 0.512 0.171 611.228 o
0 10 9 24.165 24.280 0.392 25.191 o
0 10 10 0.789 1.175 0.181 534.963 o
0 10 11 33.425 33.804 0.633 12.169 o
0 10 12 108.513 111.085 1.778 1.231 o
0 10 13 14.853 14.536 0.472 41.671 o
0 10 14 3.988 3.948 0.311 159.972 o
0 10 15 4.662 4.701 0.663 38.924 o
0 11 1 105.066 102.164 1.969 1.262 o
0 11 2 91.117 87.879 1.899 1.582 o
0 11 3 0.293 0.311 0.191 490.768 o
0 11 4 116.429 117.353 1.416 1.196 o
0 11 5 50.458 50.248 0.623 6.387 o
0 11 6 0.041 0.060 0.171 614.427 o
0 11 7 3.023 3.024 0.191 397.038 o
0 11 8 0.047 -0.010 0.482 77.075 o
0 11 9 67.612 69.154 0.924 3.398 o
0 11 10 35.560 36.647 0.593 11.341 o
0 11 11 10.172 10.317 0.462 57.252 o
0 11 12 3.519 3.134 0.301 176.087 o
0 11 13 21.923 22.382 0.553 23.292 o
0 11 14 0.005 0.171 0.231 335.673 o
0 12 0 171.291 172.443 4.681 0.359 o
0 12 1 0.419 0.563 0.221 365.352 o
0 12 2 12.551 11.753 0.311 74.449 o
0 12 3 20.502 19.519 0.502 28.006 o
0 12 4 62.428 62.343 1.366 3.215 o
0 12 5 34.555 33.663 0.673 11.409 o
0 12 6 8.539 8.097 0.301 113.503 o
0 12 7 121.319 125.359 2.180 0.939 o
0 12 8 2.828 2.562 0.241 274.556 o
0 12 9 10.532 11.332 0.332 81.109 o
0 12 10 5.926 6.088 0.311 136.766 o
0 12 11 13.765 14.496 0.563 35.602 o
0 12 12 0.726 1.346 0.482 76.802 o
0 12 13 0.799 0.894 0.221 362.034 o
0 13 1 11.383 10.327 0.362 72.648 o
0 13 2 26.559 25.034 0.683 16.102 o
0 13 3 81.672 80.666 1.688 1.959 o
0 13 4 2.330 1.999 0.251 264.457 o
0 13 5 15.781 14.888 0.412 45.032 o
0 13 6 10.021 10.608 0.352 80.352 o
0 13 7 1.940 2.140 0.211 370.732 o
0 13 8 14.541 14.456 0.342 56.488 o
0 13 9 6.487 6.068 0.251 176.657 o
0 13 10 0.023 0.111 0.211 402.658 o
0 13 11 26.572 27.766 0.502 18.963 o
0 14 0 0.282 0.462 0.563 56.607 o
0 14 1 10.625 10.287 0.442 59.614 o
0 14 2 0.007 0.141 0.211 402.658 o
0 14 3 3.228 2.742 0.251 248.816 o
0 14 4 29.113 27.565 0.542 16.700 o
0 14 5 18.997 18.062 0.683 22.425 o
0 14 6 1.923 2.110 0.231 313.640 o
0 14 7 50.901 49.937 2.260 2.375 o
0 14 8 1.003 0.995 0.201 433.723 o
0 14 9 6.979 7.132 0.281 142.014 o
0 15 1 0.053 0.000 0.231 335.687 o
0 15 2 0.277 -0.070 0.342 153.575 o
0 15 3 27.403 25.888 1.005 10.553 o
0 15 4 0.045 -0.131 0.332 163.068 o
0 15 5 9.469 8.629 0.563 45.154 o
0 15 6 18.381 19.770 1.185 10.280 o
1 1 1 46.747 45.215 0.532 7.726 o
1 1 2 46.946 53.272 0.583 6.811 o
1 1 3 638.251 678.442 7.002 0.040 o
1 1 4 729.218 790.471 7.424 0.030 o
1 1 5 119.980 124.827 1.447 1.108 o
1 1 6 6.398 6.710 0.241 182.142 o
1 1 7 8.083 7.454 0.241 152.954 o
1 1 8 121.740 114.591 1.216 1.191 o
1 1 9 63.737 62.825 0.774 4.045 o
1 1 10 14.985 14.616 0.342 54.799 o
1 1 11 1.922 2.019 0.181 493.209 o
1 1 12 443.061 452.727 4.681 0.085 o
1 1 13 17.198 16.726 0.321 47.173 o
1 1 14 193.375 196.352 1.999 0.448 o
1 1 15 0.893 1.226 0.171 594.896 o
1 1 16 17.687 16.656 0.522 32.039 o
1 1 17 3.354 3.064 0.342 141.372 o
1 1 18 7.301 6.781 0.382 92.323 o
1 1 19 7.181 6.931 0.362 100.246 o
1 1 20 11.338 11.874 0.392 64.045 o
1 2 0 200.149 218.744 2.290 0.391 o
1 2 1 3972.260 3920.740 64.835 0.001 o
1 2 2 989.106 1056.660 10.317 0.017 o
1 2 3 107.134 114.761 1.356 1.348 o
1 2 4 19.013 20.262 0.352 37.092 o
1 2 5 32.738 34.688 0.532 13.323 o
1 2 6 208.920 210.396 1.899 0.395 o
1 2 7 64.469 65.407 1.035 3.536 o
1 2 8 157.294 158.259 2.140 0.635 o
1 2 9 285.262 287.868 3.466 0.199 o
1 2 10 243.788 240.744 2.933 0.277 o
1 2 11 207.118 206.327 2.009 0.400 o
1 2 12 1.330 1.185 0.181 523.055 o
1 2 13 2.695 2.652 0.191 414.132 o
1 2 14 1.946 2.200 0.181 489.307 o
1 2 15 49.968 49.957 0.613 6.509 o
1 2 16 130.461 129.046 2.773 0.754 o
1 2 17 3.123 3.034 0.402 105.060 o
1 2 18 34.031 34.447 0.723 10.960 o
1 2 19 4.490 4.219 0.321 147.164 o
1 3 0 8.847 8.639 0.271 121.950 o
1 3 1 452.894 492.417 4.842 0.078 o
1 3 2 256.919 281.338 3.375 0.229 o
1 3 3 121.316 129.147 1.567 1.049 o
1 3 4 240.999 243.265 2.692 0.285 o
1 3 5 1047.260 1140.330 11.522 0.014 o
1 3 6 179.809 177.687 1.778 0.532 o
1 3 7 334.931 329.818 3.114 0.155 o
1 3 8 1.903 2.100 0.201 406.768 o
1 3 9 50.529 49.163 0.774 6.001 o
1 3 10 64.786 62.373 0.784 3.971 o
1 3 11 70.059 70.109 0.794 3.377 o
1 3 12 31.818 29.946 0.412 16.346 o
1 3 13 36.597 36.405 0.603 10.965 o
1 3 14 39.458 39.479 0.522 10.204 o
1 3 15 52.423 53.172 0.663 5.815 o
1 3 16 61.338 60.053 0.904 4.119 o
1 3 17 2.888 2.943 0.321 160.892 o
1 3 18 22.776 21.749 0.563 22.520 o
1 3 19 31.378 31.553 1.065 8.636 o
1 4 0 249.876 258.303 2.521 0.267 o
1 4 1 541.968 609.167 7.384 0.050 o
1 4 2 123.329 137.183 1.627 0.983 o
1 4 3 92.392 89.687 0.964 2.013 o
1 4 4 79.278 72.610 0.794 2.852 o
1 4 5 93.661 92.279 0.944 1.955 o
1 4 6 118.217 117.212 1.135 1.234 o
1 4 7 100.762 98.467 0.984 1.708 o
1 4 8 103.850 109.357 1.326 1.446 o
1 4 9 126.760 125.701 1.537 1.019 o
1 4 10 100.857 101.511 1.085 1.643 o
1 4 11 231.900 237.107 2.481 0.308 o
1 4 12 20.996 20.131 0.342 34.131 o
1 4 13 140.580 143.231 1.879 0.793 o
1 4 14 0.220 -0.050 0.442 91.717 o
1 4 15 17.984 18.394 0.382 39.091 o
1 4 16 10.246 9.674 0.352 81.488 o
1 4 17 4.227 4.360 0.342 133.705 o
1 4 18 1.059 1.306 0.281 223.010 o
1 4 19 2.976 3.596 0.774 29.476 o
1 5 0 71.019 77.331 0.794 3.132 o
1 5 1 242.285 265.747 2.742 0.267 o
1 5 2 230.876 234.324 2.160 0.320 o
1 5 3 677.725 720.473 6.972 0.036 o
1 5 4 53.045 54.096 0.824 5.280 o
1 5 5 135.716 131.507 1.447 0.930 o
1 5 6 111.871 112.380 1.376 1.294 o
1 5 7 392.663 408.154 4.239 0.106 o
1 5 8 5.920 5.555 0.261 178.780 o
1 5 9 225.847 228.217 2.752 0.317 o
1 5 10 74.404 75.111 1.497 2.375 o
1 5 11 4.350 4.531 0.251 219.635 o
1 5 12 5.756 5.776 0.271 170.356 o
1 5 13 10.941 10.980 0.321 82.353 o
1 5 14 0.008 0.030 0.191 491.915 o
1 5 15 7.974 7.976 0.623 39.959 o
1 5 16 2.473 2.531 0.643 42.743 o
1 6 0 11.750 10.859 0.251 95.325 o
1 6 1 292.699 305.468 3.325 0.189 o
1 6 2 55.234 54.809 0.663 5.381 o
1 6 3 136.417 131.748 1.688 0.889 o
1 6 4 445.497 459.196 5.013 0.082 o
1 6 5 0.578 0.542 0.201 440.621 o
1 6 6 81.807 82.203 1.165 2.312 o
1 6 7 4.929 4.541 0.261 198.770 o
1 6 8 191.048 193.167 2.431 0.438 o
1 6 9 8.887 8.529 0.291 113.368 o
1 6 10 4.388 4.440 0.251 219.742 o
1 6 11 197.137 202.580 3.325 0.368 o
1 6 12 0.880 1.005 0.211 395.492 o
1 6 13 40.483 40.213 0.984 7.103 o
1 6 14 20.828 21.447 0.442 29.057 o
1 6 15 11.176 10.457 0.452 56.308 o
1 6 16 7.081 7.173 0.382 92.431 o
1 6 17 13.648 14.747 0.944 16.613 o
1 7 0 579.812 602.256 5.967 0.049 o
1 7 1 26.504 28.801 0.452 19.638 o
1 7 2 85.776 88.723 0.974 2.208 o
1 7 3 208.197 218.442 2.411 0.370 o
1 7 4 133.702 141.041 1.838 0.852 o
1 7 5 8.644 9.202 0.321 100.911 o
1 7 6 11.749 11.573 0.352 70.618 o
1 7 7 81.605 80.124 1.005 2.463 o
1 7 8 114.597 115.545 1.175 1.284 o
1 7 9 125.890 127.569 1.738 0.982 o
1 7 10 107.902 108.664 1.577 1.315 o
1 7 11 0.044 0.030 0.201 443.940 o
1 7 12 40.510 40.675 0.864 7.746 o
1 7 13 0.442 0.553 0.201 441.566 o
1 7 14 73.856 77.291 1.899 2.000 o
1 7 15 2.576 2.732 0.342 145.417 o
1 7 16 0.006 0.251 0.271 243.573 o
1 7 17 20.026 20.372 0.512 27.620 o
1 8 0 276.840 283.357 2.974 0.216 o
1 8 1 3.385 3.265 0.201 351.242 o
1 8 2 0.339 0.603 0.191 489.584 o
1 8 3 2.806 3.235 0.241 269.860 o
1 8 4 397.896 402.850 5.676 0.097 o
1 8 5 38.273 36.707 0.502 11.134 o
1 8 6 374.757 384.446 4.259 0.116 o
1 8 7 0.969 1.145 0.191 478.698 o
1 8 8 50.383 50.339 0.623 6.391 o
1 8 9 15.162 15.139 0.321 55.646 o
1 8 10 14.227 13.903 0.362 55.889 o
1 8 11 0.774 0.784 0.211 397.539 o
1 8 12 32.298 32.608 0.563 13.614 o
1 8 13 9.981 9.774 0.432 63.964 o
1 8 14 87.960 91.867 1.989 1.552 o
1 8 15 5.420 5.334 0.362 113.085 o
1 8 16 14.249 15.350 0.462 42.976 o
1 8 17 0.838 0.954 0.613 47.632 o
1 9 0 306.141 305.498 3.416 0.178 o
1 9 1 1.094 1.075 0.161 664.711 o
1 9 2 106.766 106.715 1.085 1.490 o
1 9 3 94.946 93.384 0.974 1.898 o
1 9 4 14.604 14.375 0.311 60.141 o
1 9 5 11.914 11.352 0.281 85.307 o
1 9 6 0.049 0.121 0.171 614.364 o
1 9 7 7.706 7.183 0.241 159.789 o
1 9 8 8.299 7.836 0.281 125.943 o
1 9 9 9.689 9.764 0.271 109.651 o
1 9 10 128.203 130.563 1.416 1.004 o
1 9 11 46.379 46.049 0.774 6.795 o
1 9 12 32.677 33.743 1.226 7.052 o
1 9 13 2.095 2.069 0.261 247.648 o
1 9 14 53.036 53.372 0.984 4.897 o
1 9 15 0.818 0.794 0.412 105.253 o
1 9 16 12.364 13.391 0.422 54.014 o
1 10 0 23.079 21.498 0.442 26.365 o
1 10 1 25.893 24.431 0.422 22.607 o
1 10 2 10.552 10.036 0.261 104.902 o
1 10 3 105.503 103.078 1.266 1.488 o
1 10 4 132.110 133.245 1.366 0.964 o
1 10 5 2.044 1.818 0.191 446.647 o
1 10 6 16.791 16.153 0.372 44.813 o
1 10 7 40.713 39.911 0.603 9.328 o
1 10 8 102.774 104.264 1.276 1.521 o
1 10 9 44.982 46.270 0.713 7.247 o
1 10 10 16.727 16.364 0.472 36.908 o
1 10 11 10.568 10.578 0.372 73.272 o
1 10 12 8.058 8.278 0.603 42.042 o
1 10 13 16.665 17.530 0.422 39.670 o
1 10 14 5.233 5.585 0.332 130.655 o
1 10 15 4.046 4.681 0.311 156.860 o
1 11 0 6.602 6.238 0.221 201.721 o
1 11 1 64.793 63.398 0.995 3.635 o
1 11 2 0.899 0.864 0.171 599.081 o
1 11 3 55.777 55.331 0.763 5.077 o
1 11 4 17.373 16.736 0.321 46.693 o
1 11 5 119.524 119.774 1.326 1.165 o
1 11 6 0.334 0.502 0.181 545.674 o
1 11 7 83.043 85.197 1.065 2.293 o
1 11 8 1.941 1.828 0.201 408.996 o
1 11 9 6.104 6.299 0.291 147.966 o
1 11 10 6.854 7.434 0.342 109.299 o
1 11 11 6.473 6.871 0.311 129.359 o
1 11 12 13.390 13.170 0.623 32.185 o
1 11 13 3.759 3.777 0.301 171.780 o
1 11 14 32.408 32.056 0.703 12.048 o
1 12 0 41.374 40.142 0.864 7.644 o
1 12 1 55.148 53.804 1.095 4.426 o
1 12 2 2.357 2.160 0.251 263.268 o
1 12 3 81.794 79.079 1.276 2.280 o
1 12 4 4.855 5.234 0.211 263.025 o
1 12 5 0.102 0.000 0.161 693.563 o
1 12 6 0.007 -0.131 0.542 60.899 o
1 12 7 27.582 28.098 0.542 17.435 o
1 12 8 15.998 15.942 0.382 46.079 o
1 12 9 43.865 46.692 0.683 7.534 o
1 12 10 1.000 0.854 0.231 330.359 o
1 12 11 18.746 19.267 0.613 25.015 o
1 12 12 26.162 26.410 0.864 12.779 o
1 12 13 25.245 25.285 0.794 14.482 o
1 13 0 27.541 25.556 0.532 18.445 o
1 13 1 10.044 9.212 0.342 86.366 o
1 13 2 50.434 48.962 1.447 4.011 o
1 13 3 67.363 66.331 1.386 2.891 o
1 13 4 17.591 16.435 0.482 34.836 o
1 13 5 75.294 77.502 1.125 2.647 o
1 13 6 0.106 0.281 0.201 443.673 o
1 13 7 23.072 22.814 0.663 19.008 o
1 13 8 9.303 9.403 0.301 103.090 o
1 13 9 26.550 26.641 0.462 20.217 o
1 13 10 19.933 20.302 0.412 32.422 o
1 13 11 1.108 1.075 0.181 529.538 o
1 14 0 2.902 2.200 0.291 195.535 o
1 14 1 85.248 82.927 2.200 1.540 o
1 14 2 11.406 11.201 0.442 56.392 o
1 14 3 14.022 13.913 0.472 43.793 o
1 14 4 20.815 20.051 0.452 29.525 o
1 14 5 4.329 3.978 0.332 141.339 o
1 14 6 40.230 41.699 1.155 6.150 o
1 14 7 4.724 5.073 0.301 158.395 o
1 14 8 0.120 0.000 0.321 173.410 o
1 14 9 37.700 38.203 1.256 6.090 o
1 15 0 28.623 26.922 0.603 16.102 o
1 15 1 2.108 2.180 0.301 188.336 o
1 15 2 17.923 17.248 0.663 24.286 o
1 15 3 3.963 3.707 0.241 247.359 o
1 15 4 10.032 10.206 0.482 54.392 o
1 15 5 21.134 20.985 0.824 16.263 o
1 15 6 6.362 6.821 0.362 104.672 o
2 0 0 513.517 572.902 5.515 0.059 o
2 0 2 3812.550 3799.430 75.654 0.001 o
2 0 4 0.190 0.743 0.291 210.824 o
2 0 6 11.243 11.553 0.402 63.086 o
2 0 8 189.208 188.396 2.421 0.450 o
2 0 10 1133.800 1167.730 20.493 0.011 o
2 0 12 525.130 531.504 7.173 0.057 o
2 0 14 39.598 38.083 0.663 9.457 o
2 0 16 0.028 -0.050 0.412 105.641 o
2 0 18 0.035 -0.392 0.362 137.023 o
2 1 0 2261.690 2362.660 22.131 0.003 o
2 1 1 280.645 297.903 3.516 0.198 o
2 1 2 1.284 1.517 0.161 649.304 o
2 1 3 17.392 16.756 0.342 45.054 o
2 1 4 937.011 971.021 9.925 0.019 o
2 1 5 85.560 90.320 1.145 2.097 o
2 1 6 1167.490 1221.640 12.326 0.012 o
2 1 7 137.626 140.689 1.447 0.878 o
2 1 8 774.844 771.705 8.127 0.028 o
2 1 9 115.550 114.631 1.386 1.230 o
2 1 10 5.956 5.736 0.281 159.899 o
2 1 11 1.572 1.718 0.191 460.309 o
2 1 12 68.737 68.521 0.763 3.532 o
2 1 13 39.844 39.309 0.522 10.117 o
2 1 14 325.191 328.151 3.466 0.158 o
2 1 15 14.771 14.998 0.301 59.586 o
2 1 16 0.092 0.231 0.321 173.390 o
2 1 17 7.265 7.223 0.281 138.712 o
2 1 18 0.189 0.623 0.191 490.491 o
2 1 19 0.178 0.342 0.271 243.427 o
2 2 0 1623.010 1723.880 18.384 0.006 o
2 2 1 21.717 23.155 0.402 28.415 o
2 2 2 380.463 399.013 4.450 0.110 o
2 2 3 2158.350 2246.820 25.064 0.003 o
2 2 4 2.953 3.546 0.201 359.721 o
2 2 5 294.040 293.473 2.793 0.199 o
2 2 6 233.488 235.781 2.200 0.314 o
2 2 7 244.994 250.076 2.361 0.282 o
2 2 8 409.661 416.351 4.279 0.100 o
2 2 9 37.931 37.541 0.553 10.756 o
2 2 10 548.911 560.315 6.359 0.054 o
2 2 11 25.838 25.004 0.382 23.337 o
2 2 12 174.937 176.190 1.758 0.554 o
2 2 13 0.646 0.653 0.181 541.466 o
2 2 14 0.721 0.834 0.171 603.131 o
2 2 15 11.753 11.522 0.261 90.483 o
2 2 16 3.929 3.687 0.261 217.692 o
2 2 17 73.139 74.860 0.964 2.935 o
2 2 18 2.423 2.491 0.251 260.598 o
2 2 19 2.098 1.959 0.291 201.635 o
2 3 0 0.241 0.241 0.141 903.503 o
2 3 1 477.099 504.974 4.531 0.073 o
2 3 2 238.320 256.254 2.682 0.280 o
2 3 3 1631.000 1731.730 19.629 0.006 o
2 3 4 102.268 99.472 1.155 1.612 o
2 3 5 15.218 14.375 0.291 60.267 o
2 3 6 44.304 43.829 0.563 8.249 o
2 3 7 771.083 784.423 7.775 0.028 o
2 3 8 721.078 743.678 7.775 0.032 o
2 3 9 144.125 141.905 1.728 0.794 o
2 3 10 10.283 9.915 0.271 104.260 o
2 3 11 55.640 54.668 0.643 5.386 o
2 3 12 42.511 41.780 0.532 9.029 o
2 3 13 172.534 173.347 2.130 0.543 o
2 3 14 43.443 42.161 0.864 7.144 o
2 3 15 15.476 15.340 0.301 56.427 o
2 3 16 0.010 0.090 0.201 443.942 o
2 3 17 0.431 0.251 0.191 490.156 o
2 3 18 0.495 0.070 0.211 401.609 o
2 3 19 7.964 7.765 0.362 94.226 o
2 4 0 80.549 78.898 0.974 2.544 o
2 4 1 16.021 16.726 0.311 51.400 o
2 4 2 0.003 0.241 0.141 905.738 o
2 4 3 1531.750 1608.590 16.123 0.007 o
2 4 4 203.103 202.118 1.979 0.416 o
2 4 5 1921.530 1977.260 23.587 0.004 o
2 4 6 13.567 13.079 0.291 70.003 o
2 4 7 150.759 150.815 1.658 0.734 o
2 4 8 77.991 74.951 0.974 2.718 o
2 4 9 4.821 4.701 0.241 224.302 o
2 4 10 0.422 0.522 0.151 782.441 o
2 4 11 5.544 5.214 0.221 232.850 o
2 4 12 58.105 56.688 0.984 4.337 o
2 4 13 26.458 25.797 0.542 18.866 o
2 4 14 4.243 3.978 0.201 315.483 o
2 4 15 32.529 31.774 0.804 10.940 o
2 4 16 14.344 14.315 0.442 45.825 o
2 4 17 65.237 68.059 1.095 3.337 o
2 4 18 1.323 1.236 0.281 222.035 o
2 5 0 89.360 91.285 0.894 2.105 o
2 5 1 1479.560 1545.280 16.133 0.007 o
2 5 2 296.464 294.257 3.184 0.192 o
2 5 3 641.019 668.436 6.962 0.040 o
2 5 4 47.235 44.914 0.633 7.296 o
2 5 5 135.556 133.506 1.537 0.910 o
2 5 6 172.767 179.686 1.899 0.546 o
2 5 7 235.599 242.702 2.401 0.300 o
2 5 8 9.817 9.594 0.332 89.475 o
2 5 9 269.630 266.410 4.048 0.211 o
2 5 10 2.462 2.361 0.211 357.559 o
2 5 11 67.607 66.673 1.195 3.121 o
2 5 12 2.695 2.893 0.211 346.197 o
2 5 13 53.827 54.658 0.864 5.071 o
2 5 14 1.152 1.406 0.211 389.918 o
2 5 15 52.899 54.487 0.924 5.016 o
2 5 16 39.768 42.513 0.703 8.654 o
2 5 17 0.498 0.342 0.221 365.488 o
2 5 18 1.474 1.577 0.603 49.036 o
2 6 0 418.993 434.835 4.079 0.095 o
2 6 1 116.637 114.118 1.165 1.268 o
2 6 2 8.765 9.805 0.261 121.678 o
2 6 3 339.655 348.774 4.159 0.139 o
2 6 4 0.001 0.161 0.201 443.925 o
2 6 5 731.608 770.128 8.800 0.030 o
2 6 6 20.223 19.750 0.432 31.438 o
2 6 7 332.567 339.623 4.460 0.141 o
2 6 8 31.524 30.529 0.462 15.717 o
2 6 9 39.523 38.776 0.593 9.845 o
2 6 10 113.863 115.495 1.316 1.262 o
2 6 11 2.260 2.602 0.321 164.856 o
2 6 12 15.347 14.777 0.512 37.236 o
2 6 13 7.296 7.193 0.342 107.390 o
2 6 14 16.192 16.083 0.442 40.367 o
2 6 15 55.308 58.546 1.055 4.328 o
2 6 16 0.079 -0.100 0.703 36.241 o
2 6 17 36.143 39.620 1.437 5.288 o
2 6 18 0.044 0.452 0.512 68.267 o
2 7 0 11.742 12.205 0.301 79.430 o
2 7 1 565.772 592.341 5.957 0.051 o
2 7 2 306.919 321.470 4.209 0.162 o
2 7 3 143.218 148.515 1.858 0.763 o
2 7 4 221.745 229.934 3.195 0.308 o
2 7 5 33.540 34.326 0.593 12.450 o
2 7 6 196.448 201.505 2.120 0.428 o
2 7 7 33.347 31.825 0.502 14.008 o
2 7 8 47.502 47.224 0.663 6.946 o
2 7 9 105.222 106.886 1.226 1.474 o
2 7 10 64.986 65.869 1.135 3.351 o
2 7 11 1.050 1.195 0.251 279.049 o
2 7 12 78.520 79.150 0.984 2.608 o
2 7 13 10.047 9.985 0.472 56.237 o
2 7 14 15.923 16.314 0.633 27.743 o
2 7 15 26.501 28.168 0.553 17.877 o
2 7 16 9.668 10.086 0.392 73.119 o
2 7 17 0.316 0.583 0.553 58.675 o
2 8 0 212.161 221.024 2.230 0.365 o
2 8 1 55.814 55.572 0.784 5.017 o
2 8 2 20.985 20.242 0.623 22.472 o
2 8 3 44.907 44.794 0.934 6.423 o
2 8 4 117.743 116.138 1.517 1.165 o
2 8 5 151.063 154.632 1.949 0.693 o
2 8 6 48.142 47.074 0.703 6.714 o
2 8 7 4.689 4.470 0.221 259.215 o
2 8 8 60.565 61.178 0.804 4.305 o
2 8 9 13.745 13.994 0.311 64.211 o
2 8 10 158.596 163.332 1.858 0.643 o
2 8 11 10.472 10.417 0.301 91.950 o
2 8 12 121.256 124.375 2.190 0.941 o
2 8 13 0.208 0.161 0.241 308.116 o
2 8 14 4.829 5.204 0.301 156.931 o
2 8 15 0.698 0.864 0.231 332.333 o
2 8 16 7.658 7.826 0.362 95.600 o
2 9 0 1.919 2.110 0.161 605.874 o
2 9 1 11.721 10.940 0.251 95.242 o
2 9 2 331.749 336.649 3.355 0.153 o
2 9 3 123.623 123.792 1.637 1.039 o
2 9 4 56.547 56.095 0.683 5.127 o
2 9 5 4.896 4.772 0.221 251.386 o
2 9 6 148.721 152.563 1.949 0.710 o
2 9 7 6.711 6.369 0.241 179.979 o
2 9 8 194.357 198.200 2.391 0.425 o
2 9 9 10.986 10.910 0.321 82.300 o
2 9 10 28.871 28.741 0.492 17.336 o
2 9 11 6.238 5.726 0.321 129.489 o
2 9 12 97.296 99.512 1.396 1.614 o
2 9 13 1.593 1.868 0.251 272.451 o
2 9 14 6.727 6.128 0.301 136.385 o
2 9 15 3.278 3.205 0.251 244.971 o
2 9 16 6.970 7.785 0.522 55.513 o
2 10 0 229.746 234.063 2.481 0.314 o
2 10 1 99.386 96.488 1.045 1.737 o
2 10 2 0.334 0.332 0.171 612.249 o
2 10 3 0.714 0.763 0.181 539.703 o
2 10 4 21.736 20.433 0.362 31.834 o
2 10 5 44.113 43.960 0.583 8.189 o
2 10 6 21.517 21.548 0.392 30.127 o
2 10 7 7.635 7.846 0.241 156.280 o
2 10 8 52.737 53.352 0.954 5.006 o
2 10 9 0.034 0.151 0.161 693.545 o
2 10 10 157.502 165.361 2.471 0.587 o
2 10 11 1.590 1.547 0.251 273.865 o
2 10 12 19.360 19.087 0.914 15.069 o
2 10 13 0.855 1.286 0.231 329.829 o
2 10 14 5.059 5.656 0.271 179.388 o
2 10 15 16.618 18.233 0.683 23.992 o
2 11 0 6.495 6.158 0.271 159.488 o
2 11 1 66.376 63.830 0.934 3.611 o
2 11 2 28.308 27.153 0.452 18.925 o
2 11 3 5.950 5.776 0.221 218.800 o
2 11 4 0.565 0.643 0.171 607.544 o
2 11 5 17.921 17.058 0.332 44.139 o
2 11 6 102.333 104.274 1.437 1.473 o
2 11 7 16.997 17.268 0.382 42.285 o
2 11 8 51.034 51.765 0.763 5.805 o
2 11 9 0.881 0.844 0.231 331.239 o
2 11 10 10.327 9.684 0.321 89.279 o
2 11 11 51.163 53.875 1.396 3.955 o
2 11 12 19.283 18.836 0.432 33.480 o
2 11 13 2.281 2.722 0.231 303.743 o
2 11 14 10.500 10.769 0.864 21.005 o
2 12 0 0.003 0.010 0.171 614.471 o
2 12 1 36.034 33.623 0.733 10.420 o
2 12 2 5.049 4.742 0.291 165.671 o
2 12 3 51.548 50.660 0.663 6.093 o
2 12 4 10.030 9.664 0.261 110.815 o
2 12 5 107.101 107.277 1.336 1.409 o
2 12 6 2.825 2.773 0.251 253.916 o
2 12 7 3.175 3.074 0.251 247.286 o
2 12 8 2.843 2.773 0.241 272.780 o
2 12 9 3.021 2.974 0.261 233.285 o
2 12 10 50.525 51.072 0.723 6.030 o
2 12 11 0.997 0.804 0.211 395.320 o
2 12 12 9.882 9.975 0.311 94.038 o
2 13 0 0.001 -0.090 0.382 122.979 o
2 13 1 69.219 64.985 1.567 2.622 o
2 13 2 19.500 18.816 0.542 27.656 o
2 13 3 0.305 0.211 0.191 490.957 o
2 13 4 6.789 6.299 0.342 113.089 o
2 13 5 0.064 -0.141 0.392 116.752 o
2 13 6 11.989 11.673 0.332 73.327 o
2 13 7 29.502 29.926 0.563 15.538 o
2 13 8 0.548 0.301 0.201 441.693 o
2 13 9 6.426 6.650 0.261 165.223 o
2 13 10 8.666 8.810 0.271 122.843 o
2 13 11 4.215 4.370 0.271 197.137 o
2 14 0 3.441 3.335 0.301 175.915 o
2 14 1 23.175 22.432 0.713 17.755 o
2 14 2 2.799 2.140 0.241 278.006 o
2 14 3 47.326 47.004 1.035 5.611 o
2 14 4 1.429 1.778 0.241 296.696 o
2 14 5 18.745 18.243 0.563 27.777 o
2 14 6 12.208 11.864 0.502 45.766 o
2 14 7 6.529 6.500 0.241 181.744 o
2 14 8 3.782 3.737 0.201 332.605 o
2 14 9 0.617 0.753 0.563 56.552 o
2 15 0 15.607 15.591 1.155 11.441 o
2 15 1 14.681 13.773 0.362 54.692 o
2 15 2 2.732 3.064 0.241 272.262 o
2 15 3 3.412 2.682 0.311 168.204 o
2 15 4 33.045 32.668 2.039 3.452 o
2 15 5 0.053 0.271 0.191 491.715 o
2 15 6 0.504 0.693 0.191 487.816 o
3 1 0 2596.760 2759.010 27.696 0.002 o
3 1 1 2015.200 2111.500 21.970 0.004 o
3 1 2 209.002 229.603 2.401 0.357 o
3 1 3 88.112 88.803 1.125 2.060 o
3 1 4 62.763 62.072 0.794 4.116 o
3 1 5 95.727 97.362 1.135 1.772 o
3 1 6 912.410 921.998 9.805 0.020 o
3 1 7 146.642 143.572 1.778 0.767 o
3 1 8 459.855 464.872 4.882 0.079 o
3 1 9 20.741 20.794 0.442 29.584 o
3 1 10 142.266 135.787 1.457 0.861 o
3 1 11 3.530 3.687 0.201 340.785 o
3 1 12 0.638 0.573 0.171 606.940 o
3 1 13 0.347 0.462 0.161 689.898 o
3 1 14 127.773 129.709 1.637 0.975 o
3 1 15 50.657 48.782 0.954 5.439 o
3 1 16 1.716 1.627 0.221 347.628 o
3 1 17 0.004 0.201 0.201 443.905 o
3 1 18 0.934 0.653 0.211 396.687 o
3 1 19 0.294 0.261 0.181 546.816 o
3 2 0 289.056 293.001 2.803 0.203 o
3 2 1 138.286 145.672 1.517 0.847 o
3 2 2 447.172 479.207 5.083 0.079 o
3 2 3 22.891 22.864 0.472 24.836 o
3 2 4 1052.490 1112.740 10.799 0.015 o
3 2 5 175.083 176.964 1.597 0.561 o
3 2 6 505.699 505.587 5.324 0.066 o
3 2 7 22.900 20.282 0.462 26.524 o
3 2 8 12.210 11.412 0.362 67.209 o
3 2 9 64.852 62.775 0.904 3.782 o
3 2 10 39.447 38.384 0.542 10.242 o
3 2 11 210.349 212.756 2.150 0.381 o
3 2 12 5.938 5.666 0.221 220.148 o
3 2 13 30.818 30.167 0.462 16.212 o
3 2 14 5.370 5.063 0.201 268.314 o
3 2 15 0.121 0.181 0.161 693.175 o
3 2 16 16.134 16.033 0.462 38.924 o
3 2 17 1.643 1.607 0.211 380.983 o
3 2 18 13.767 14.697 0.332 60.011 o
3 2 19 4.101 4.320 0.251 224.949 o
3 3 0 317.613 336.709 3.918 0.155 o
3 3 1 2928.630 3043.010 39.921 0.002 o
3 3 2 29.310 29.625 0.522 16.337 o
3 3 3 366.381 369.669 3.496 0.127 o
3 3 4 58.586 56.477 0.673 4.918 o
3 3 5 130.792 129.368 1.276 1.007 o
3 3 6 478.992 484.390 4.521 0.074 o
3 3 7 160.947 162.116 1.738 0.644 o
3 3 8 20.559 20.232 0.382 32.943 o
3 3 9 74.757 69.867 1.165 2.778 o
3 3 10 16.289 14.707 0.311 53.723 o
3 3 11 9.153 8.760 0.251 127.463 o
3 3 12 2.556 2.300 0.191 424.218 o
3 3 13 29.253 28.530 0.643 14.750 o
3 3 14 29.228 28.771 0.713 13.640 o
3 3 15 60.876 60.163 1.487 3.137 o
3 3 16 0.654 0.804 0.201 438.830 o
3 3 17 20.387 21.387 0.412 30.977 o
3 3 18 12.556 12.577 0.311 72.467 o
3 4 0 90.399 92.259 0.944 2.041 o
3 4 1 477.263 490.659 4.591 0.074 o
3 4 2 14.754 14.255 0.291 62.326 o
3 4 3 135.900 132.401 1.698 0.888 o
3 4 4 0.019 0.281 0.181 547.912 o
3 4 5 238.039 248.137 2.612 0.288 o
3 4 6 29.444 29.434 0.502 16.628 o
3 4 7 0.420 0.452 0.181 545.150 o
3 4 8 14.400 13.783 0.372 54.298 o
3 4 9 197.487 196.864 2.341 0.421 o
3 4 10 24.432 24.531 0.412 24.227 o
3 4 11 329.753 331.767 4.289 0.146 o
3 4 12 24.782 23.878 0.492 22.041 o
3 4 13 31.835 30.991 0.804 11.242 o
3 4 14 8.035 8.037 0.281 127.448 o
3 4 15 6.630 7.253 0.372 98.101 o
3 4 16 0.616 0.362 0.231 334.013 o
3 4 17 0.841 0.944 0.231 331.165 o
3 4 18 0.004 0.382 0.241 308.217 o
3 5 0 21.195 22.161 0.352 31.743 o
3 5 1 1299.690 1342.860 13.632 0.010 o
3 5 2 12.159 11.944 0.271 84.247 o
3 5 3 599.415 615.817 5.847 0.047 o
3 5 4 37.070 36.435 0.563 11.129 o
3 5 5 79.765 80.456 1.266 2.328 o
3 5 6 25.326 24.783 0.432 22.720 o
3 5 7 34.377 32.367 0.502 13.430 o
3 5 8 285.516 285.818 3.305 0.202 o
3 5 9 170.702 169.992 1.899 0.573 o
3 5 10 6.782 6.520 0.241 177.770 o
3 5 11 3.317 3.054 0.201 356.286 o
3 5 12 55.456 56.045 1.055 4.412 o
3 5 13 40.242 40.022 0.613 9.372 o
3 5 14 4.294 4.380 0.332 140.345 o
3 5 15 27.926 30.036 0.593 15.833 o
3 5 16 8.356 8.880 0.683 33.438 o
3 5 17 17.303 17.982 0.673 24.034 o
3 5 18 10.643 11.452 0.573 40.611 o
3 6 0 18.754 17.962 0.332 41.151 o
3 6 1 3.555 3.436 0.181 403.031 o
3 6 2 87.975 89.989 0.954 2.135 o
3 6 3 206.907 212.576 2.662 0.369 o
3 6 4 247.622 257.299 3.215 0.255 o
3 6 5 14.011 13.411 0.372 56.034 o
3 6 6 172.164 175.648 2.481 0.515 o
3 6 7 66.284 66.633 1.085 3.333 o
3 6 8 13.174 12.959 0.311 68.800 o
3 6 9 65.067 64.493 0.814 3.837 o
3 6 10 0.271 0.784 0.251 283.297 o
3 6 11 21.859 21.407 0.422 28.590 o
3 6 12 13.592 13.692 0.392 54.255 o
3 6 13 110.123 113.164 1.617 1.246 o
3 6 14 34.743 36.606 1.216 6.715 o
3 6 15 3.725 3.395 0.321 154.778 o
3 6 16 11.898 12.316 0.432 55.211 o
3 6 17 3.202 3.205 0.271 215.037 o
3 7 0 49.503 49.766 0.633 6.534 o
3 7 1 486.421 503.577 5.384 0.069 o
3 7 2 643.787 669.391 7.836 0.038 o
3 7 3 67.969 68.873 1.236 3.004 o
3 7 4 45.696 45.637 0.804 6.807 o
3 7 5 7.544 7.373 0.301 124.270 o
3 7 6 51.377 51.886 0.703 5.924 o
3 7 7 4.604 4.681 0.221 258.747 o
3 7 8 132.866 137.143 1.396 0.937 o
3 7 9 67.619 68.381 0.864 3.491 o
3 7 10 100.580 100.828 1.185 1.621 o
3 7 11 4.463 4.480 0.241 232.295 o
3 7 12 72.820 75.292 1.025 2.883 o
3 7 13 6.851 6.992 0.442 74.456 o
3 7 14 0.641 0.914 0.382 122.550 o
3 7 15 3.630 3.847 0.502 67.538 o
3 7 16 14.147 13.963 0.442 46.628 o
3 7 17 0.195 0.352 0.221 366.470 o
3 8 0 15.671 14.948 0.332 53.234 o
3 8 1 0.122 0.100 0.161 693.346 o
3 8 2 240.535 242.823 3.637 0.261 o
3 8 3 87.917 89.255 1.115 2.065 o
3 8 4 377.755 387.420 4.370 0.114 o
3 8 5 17.828 17.530 0.332 43.792 o
3 8 6 250.648 255.702 2.903 0.259 o
3 8 7 30.315 30.097 0.452 16.664 o
3 8 8 28.649 28.088 0.462 18.193 o
3 8 9 2.367 2.793 0.231 301.800 o
3 8 10 13.056 13.100 0.342 64.150 o
3 8 11 4.446 4.139 0.241 235.505 o
3 8 12 3.966 3.556 0.301 171.018 o
3 8 13 0.995 1.035 0.261 259.022 o
3 8 14 7.926 8.880 0.342 98.801 o
3 8 15 2.744 3.154 0.251 252.495 o
3 8 16 36.384 38.153 0.723 9.819 o
3 9 0 47.817 44.663 0.512 7.641 o
3 9 1 48.205 47.586 0.563 7.138 o
3 9 2 353.346 360.146 3.938 0.132 o
3 9 3 4.770 4.541 0.211 273.659 o
3 9 4 2.423 2.300 0.191 428.365 o
3 9 5 71.054 71.183 0.834 3.253 o
3 9 6 75.947 76.708 1.035 2.715 o
3 9 7 41.397 42.453 0.663 8.536 o
3 9 8 160.032 165.140 1.838 0.633 o
3 9 9 15.855 15.711 0.321 52.506 o
3 9 10 21.161 21.206 0.422 29.617 o
3 9 11 0.077 0.050 0.241 308.279 o
3 9 12 38.308 39.660 0.703 9.309 o
3 9 13 15.617 15.320 0.412 44.918 o
3 9 14 2.511 2.813 0.271 223.838 o
3 9 15 2.986 3.164 0.231 288.037 o
3 10 0 34.627 32.889 0.502 13.213 o
3 10 1 26.903 25.496 0.402 21.671 o
3 10 2 38.154 37.520 0.502 11.039 o
3 10 3 22.905 21.709 0.372 28.878 o
3 10 4 165.861 167.471 1.889 0.599 o
3 10 5 9.840 9.895 0.261 111.460 o
3 10 6 214.154 222.219 2.682 0.345 o
3 10 7 56.109 56.999 0.904 4.658 o
3 10 8 1.621 1.477 0.181 511.244 o
3 10 9 54.602 55.020 1.296 3.953 o
3 10 10 10.626 11.412 0.382 69.294 o
3 10 11 11.902 12.055 0.382 63.596 o
3 10 12 6.864 7.022 0.311 125.723 o
3 10 13 8.770 8.679 0.462 62.599 o
3 10 14 2.952 3.576 0.241 264.951 o
3 11 0 9.202 8.880 0.221 140.421 o
3 11 1 2.783 3.174 0.191 402.577 o
3 11 2 65.297 62.916 0.733 3.982 o
3 11 3 212.362 213.701 2.401 0.367 o
3 11 4 1.145 1.256 0.181 526.665 o
3 11 5 29.832 30.488 0.452 16.837 o
3 11 6 21.333 21.026 0.563 24.031 o
3 11 7 34.057 34.507 0.864 9.631 o
3 11 8 72.685 75.001 0.995 2.924 o
3 11 9 26.851 27.093 0.653 16.042 o
3 11 10 4.994 5.003 0.261 194.788 o
3 11 11 5.699 5.455 0.321 134.348 o
3 11 12 4.000 3.988 0.251 228.935 o
3 11 13 43.150 46.350 0.703 7.605 o
3 12 0 37.766 36.446 0.492 11.421 o
3 12 1 45.234 44.321 0.743 7.240 o
3 12 2 4.968 4.862 0.191 300.671 o
3 12 3 2.473 2.250 0.181 469.409 o
3 12 4 75.505 75.583 2.059 1.852 o
3 12 5 0.122 0.000 0.422 100.667 o
3 12 6 0.521 0.542 0.211 400.292 o
3 12 7 6.565 6.108 0.422 82.517 o
3 12 8 0.901 1.216 0.221 359.811 o
3 12 9 57.023 60.937 0.824 4.573 o
3 12 10 0.159 0.100 0.191 491.668 o
3 12 11 40.959 42.061 0.673 8.618 o
3 12 12 0.141 -0.030 0.311 184.773 o
3 13 0 4.950 4.480 0.281 177.430 o
3 13 1 44.558 44.120 1.175 5.497 o
3 13 2 10.890 9.805 0.512 48.692 o
3 13 3 25.466 24.541 0.703 16.332 o
3 13 4 2.853 2.873 0.231 292.955 o
3 13 5 13.857 13.220 0.442 48.086 o
3 13 6 0.016 -0.100 0.392 116.754 o
3 13 7 60.566 62.956 0.995 3.917 o
3 13 8 2.593 2.793 0.221 322.428 o
3 13 9 1.535 1.426 0.191 464.634 o
3 13 10 12.078 12.356 0.362 65.918 o
3 14 0 4.818 4.320 0.271 190.293 o
3 14 1 2.008 1.919 0.241 289.728 o
3 14 2 5.160 5.063 0.271 181.734 o
3 14 3 0.143 0.241 0.181 547.601 o
3 14 4 0.825 1.095 0.181 535.041 o
3 14 5 0.279 0.362 0.171 612.588 o
3 14 6 4.178 4.219 0.301 166.615 o
3 14 7 1.088 1.416 0.181 526.125 o
3 14 8 9.265 9.423 0.261 118.756 o
3 15 0 15.259 13.712 0.924 16.888 o
3 15 1 22.092 21.488 0.442 27.497 o
3 15 2 4.395 4.199 0.251 221.446 o
3 15 3 3.129 3.164 0.231 285.467 o
3 15 4 0.025 0.181 0.301 197.301 o
3 15 5 0.606 0.553 0.241 306.565 o
4 0 0 127.307 129.408 2.893 0.747 o
4 0 2 193.437 200.521 2.712 0.409 o
4 0 4 58.309 58.536 0.864 4.488 o
4 0 6 39.075 38.284 0.774 8.815 o
4 0 8 333.488 321.249 5.686 0.132 o
4 0 10 359.138 359.905 4.762 0.123 o
4 0 12 161.280 161.112 1.969 0.626 o
4 0 14 4.958 4.701 0.281 176.168 o
4 0 16 7.657 7.173 0.522 54.908 o
4 0 18 10.131 10.347 0.402 68.766 o
4 1 0 390.262 433.660 4.169 0.103 o
4 1 1 4.932 5.314 0.241 217.203 o
4 1 2 1387.620 1476.960 15.581 0.008 o
4 1 3 10.347 10.176 0.271 102.750 o
4 1 4 2.342 2.441 0.211 359.303 o
4 1 5 0.027 0.422 0.221 366.725 o
4 1 6 705.074 706.831 7.524 0.034 o
4 1 7 87.535 85.016 1.316 2.016 o
4 1 8 140.493 136.480 2.150 0.777 o
4 1 9 28.774 26.792 0.743 13.729 o
4 1 10 2.776 2.411 0.181 454.783 o
4 1 11 35.654 34.014 0.542 12.207 o
4 1 12 82.926 79.873 1.386 2.156 o
4 1 13 17.165 15.983 0.311 49.118 o
4 1 14 10.773 10.277 0.261 102.181 o
4 1 15 0.158 0.492 0.221 366.388 o
4 1 16 127.920 132.120 1.617 0.966 o
4 1 17 4.958 4.701 0.251 209.149 o
4 1 18 13.559 13.511 0.321 64.460 o
4 2 0 1.185 1.467 0.171 583.312 o
4 2 1 110.798 117.363 1.919 1.131 o
4 2 2 81.694 79.582 1.035 2.449 o
4 2 3 486.311 494.878 5.013 0.071 o
4 2 4 2.061 1.868 0.171 543.666 o
4 2 5 681.538 702.672 6.570 0.036 o
4 2 6 53.746 53.091 0.864 5.157 o
4 2 7 0.246 0.362 0.191 490.879 o
4 2 8 163.888 152.955 2.270 0.605 o
4 2 9 34.542 32.930 0.603 12.236 o
4 2 10 122.686 120.648 1.527 1.086 o
4 2 11 1.724 1.979 0.251 270.754 o
4 2 12 160.812 162.277 1.678 0.649 o
4 2 13 162.650 161.705 2.230 0.596 o
4 2 14 0.645 0.492 0.161 684.772 o
4 2 15 32.893 32.749 0.553 13.447 o
4 2 16 4.006 4.119 0.251 227.869 o
4 2 17 3.952 3.918 0.251 230.158 o
4 2 18 2.320 2.200 0.201 395.449 o
4 3 0 3.197 4.189 0.191 371.156 o
4 3 1 375.450 383.964 4.179 0.117 o
4 3 2 2.202 2.531 0.161 579.478 o
4 3 3 21.544 21.769 0.352 31.510 o
4 3 4 155.518 155.426 1.587 0.702 o
4 3 5 2.309 3.014 0.191 420.747 o
4 3 6 143.526 142.015 1.396 0.836 o
4 3 7 173.999 172.313 2.059 0.545 o
4 3 8 2.589 2.371 0.211 354.623 o
4 3 9 425.880 435.127 4.983 0.090 o
4 3 10 110.484 107.709 1.135 1.409 o
4 3 11 129.127 126.113 1.316 1.032 o
4 3 12 59.053 57.481 0.874 4.451 o
4 3 13 58.621 57.993 1.195 3.830 o
4 3 14 8.806 8.338 0.241 138.506 o
4 3 15 10.100 10.357 0.321 88.652 o
4 3 16 6.274 6.349 0.271 160.937 o
4 3 17 52.986 53.875 0.894 5.116 o
4 3 18 11.847 11.834 0.301 79.866 o
4 4 0 42.804 42.684 0.522 8.896 o
4 4 1 238.794 233.631 2.562 0.298 o
4 4 2 19.416 19.448 0.321 38.725 o
4 4 3 561.185 572.591 5.736 0.053 o
4 4 4 2.586 2.260 0.201 387.788 o
4 4 5 303.214 308.049 2.963 0.184 o
4 4 6 154.701 156.049 1.597 0.703 o
4 4 7 338.975 337.855 3.626 0.146 o
4 4 8 44.687 43.066 0.784 7.255 o
4 4 9 24.263 23.607 0.452 23.738 o
4 4 10 3.693 3.205 0.241 256.025 o
4 4 11 17.121 16.234 0.362 44.758 o
4 4 12 0.006 0.161 0.201 443.921 o
4 4 13 72.826 71.676 1.296 2.684 o
4 4 14 11.745 11.532 0.402 61.528 o
4 4 15 134.201 141.824 1.919 0.834 o
4 4 16 5.004 4.731 0.291 166.145 o
4 4 17 28.358 29.775 0.542 16.504 o
4 4 18 7.905 8.318 0.281 127.353 o
4 5 0 268.175 264.773 2.381 0.244 o
4 5 1 142.514 146.264 1.396 0.828 o
4 5 2 8.853 9.352 0.241 132.153 o
4 5 3 84.079 81.259 0.904 2.422 o
4 5 4 148.076 143.432 1.718 0.766 o
4 5 5 14.150 14.275 0.362 55.551 o
4 5 6 1.433 2.069 0.201 417.316 o
4 5 7 189.876 187.984 2.069 0.467 o
4 5 8 1.331 1.336 0.181 521.132 o
4 5 9 121.402 121.954 1.336 1.130 o
4 5 10 34.830 34.477 0.683 11.102 o
4 5 11 296.803 304.433 5.093 0.161 o
4 5 12 0.010 0.030 0.201 443.953 o
4 5 13 84.511 87.106 1.356 2.041 o
4 5 14 16.907 17.851 0.623 26.732 o
4 5 15 0.326 0.231 0.241 307.866 o
4 5 16 0.945 1.095 0.231 329.870 o
4 5 17 22.054 22.412 0.452 26.644 o
4 6 0 148.710 146.576 1.457 0.780 o
4 6 1 34.582 34.105 0.502 12.979 o
4 6 2 11.952 12.236 0.301 78.247 o
4 6 3 87.421 88.251 1.075 2.113 o
4 6 4 3.860 3.827 0.241 248.083 o
4 6 5 226.021 227.694 2.823 0.315 o
4 6 6 179.988 180.399 2.331 0.493 o
4 6 7 160.608 162.659 1.889 0.632 o
4 6 8 44.133 43.839 0.804 7.190 o
4 6 9 21.424 20.975 0.452 28.203 o
4 6 10 75.539 77.000 1.035 2.725 o
4 6 11 0.894 0.673 0.221 362.152 o
4 6 12 8.220 8.408 0.342 98.468 o
4 6 13 54.865 56.537 1.065 4.415 o
4 6 14 0.001 0.542 0.291 211.078 o
4 6 15 83.501 86.915 1.437 2.017 o
4 6 16 1.140 1.356 0.261 257.418 o
4 6 17 12.144 12.135 0.382 62.636 o
4 7 0 290.538 293.905 3.144 0.197 o
4 7 1 1.739 1.607 0.181 505.768 o
4 7 2 288.155 287.054 3.546 0.196 o
4 7 3 119.611 118.770 1.437 1.147 o
4 7 4 335.181 337.644 3.355 0.151 o
4 7 5 0.932 0.894 0.181 534.923 o
4 7 6 39.493 39.962 0.583 9.757 o
4 7 7 23.923 24.019 0.392 25.601 o
4 7 8 61.468 62.775 0.804 4.172 o
4 7 9 0.151 0.553 0.201 443.108 o
4 7 10 40.607 40.775 0.603 9.247 o
4 7 11 180.091 188.667 2.160 0.490 o
4 7 12 16.794 17.530 0.472 35.882 o
4 7 13 33.142 34.155 1.115 7.755 o
4 7 14 23.937 23.889 0.613 19.469 o
4 7 15 1.702 1.838 0.281 218.478 o
4 7 16 4.688 5.766 0.311 147.809 o
4 8 0 652.891 670.044 7.524 0.038 o
4 8 1 5.089 5.013 0.201 276.629 o
4 8 2 8.515 8.107 0.251 137.922 o
4 8 3 4.865 5.103 0.221 248.474 o
4 8 4 20.139 19.669 0.352 35.564 o
4 8 5 1.959 2.069 0.201 405.812 o
4 8 6 14.592 13.953 0.301 62.282 o
4 8 7 69.157 70.530 0.804 3.406 o
4 8 8 228.791 238.795 2.763 0.304 o
4 8 9 21.028 21.056 0.553 24.659 o
4 8 10 136.870 140.689 1.617 0.862 o
4 8 11 1.166 1.316 0.281 222.549 o
4 8 12 0.026 0.191 0.382 122.974 o
4 8 13 0.843 1.286 0.241 303.427 o
4 8 14 25.847 25.747 0.623 17.526 o
4 8 15 12.068 12.175 0.452 52.113 o
4 9 0 191.405 193.549 1.919 0.461 o
4 9 1 0.069 0.161 0.171 614.273 o
4 9 2 80.588 78.828 1.246 2.343 o
4 9 3 20.607 20.162 0.442 30.170 o
4 9 4 352.577 364.134 3.938 0.131 o
4 9 5 122.237 124.606 1.346 1.104 o
4 9 6 39.791 40.112 0.542 9.899 o
4 9 7 26.344 26.591 0.422 21.256 o
4 9 8 18.692 18.595 0.442 34.008 o
4 9 9 0.307 0.522 0.181 545.816 o
4 9 10 0.662 0.542 0.251 282.482 o
4 9 11 0.097 0.452 0.241 308.069 o
4 9 12 11.559 11.311 0.362 69.943 o
4 9 13 1.657 1.668 0.231 319.958 o
4 9 14 34.751 36.446 0.603 11.553 o
4 9 15 8.000 8.589 0.342 99.209 o
4 10 0 58.620 56.637 0.623 4.996 o
4 10 1 181.570 183.524 1.929 0.507 o
4 10 2 1.775 1.838 0.181 501.010 o
4 10 3 80.935 82.304 1.015 2.442 o
4 10 4 2.235 2.100 0.181 480.905 o
4 10 5 24.285 23.718 0.442 23.948 o
4 10 6 52.203 52.046 0.824 5.482 o
4 10 7 3.380 3.255 0.271 212.881 o
4 10 8 26.109 24.120 0.753 15.132 o
4 10 9 9.490 8.951 0.311 99.817 o
4 10 10 49.060 49.917 0.804 6.044 o
4 10 11 23.607 23.276 0.603 20.156 o
4 10 12 15.622 16.063 0.402 44.994 o
4 10 13 0.017 0.000 0.201 443.954 o
4 10 14 2.210 2.572 0.261 244.182 o
4 11 0 53.537 52.508 0.995 4.865 o
4 11 1 42.473 41.217 0.663 8.437 o
4 11 2 13.973 13.823 0.291 66.501 o
4 11 3 0.096 0.352 0.161 692.840 o
4 11 4 34.414 33.623 0.583 12.358 o
4 11 5 69.382 70.199 0.844 3.361 o
4 11 6 8.114 7.534 0.301 119.020 o
4 11 7 27.377 28.118 0.512 18.116 o
4 11 8 25.026 24.471 0.472 22.108 o
4 11 9 46.854 47.727 0.693 6.900 o
4 11 10 0.879 1.095 0.201 434.676 o
4 11 11 3.098 3.104 0.241 266.361 o
4 11 12 0.245 -0.342 0.321 173.377 o
4 11 13 1.543 1.939 0.603 48.968 o
4 12 0 7.862 7.313 0.231 163.595 o
4 12 1 120.686 119.443 1.969 1.015 o
4 12 2 0.053 0.000 0.191 491.902 o
4 12 3 79.463 82.465 1.949 1.799 o
4 12 4 0.372 0.352 0.221 365.954 o
4 12 5 42.353 42.794 0.914 7.012 o
4 12 6 0.389 0.261 0.211 401.650 o
4 12 7 15.626 15.290 0.372 48.782 o
4 12 8 0.052 0.060 0.191 491.879 o
4 12 9 1.403 1.406 0.201 424.216 o
4 12 10 10.878 11.251 0.301 86.948 o
4 12 11 11.344 11.824 0.321 78.128 o
4 13 0 0.414 0.342 0.211 401.373 o
4 13 1 6.265 6.439 0.261 168.593 o
4 13 2 0.094 0.070 0.181 547.974 o
4 13 3 8.533 8.037 0.281 122.912 o
4 13 4 17.345 16.927 0.412 39.684 o
4 13 5 24.578 24.692 0.603 19.057 o
4 13 6 0.004 0.131 0.201 443.933 o
4 13 7 23.945 24.933 0.784 15.250 o
4 13 8 19.268 19.227 0.492 30.100 o
4 13 9 21.118 22.151 0.532 24.816 o
4 14 0 12.720 11.070 0.904 18.697 o
4 14 1 1.284 1.035 0.181 525.998 o
4 14 2 0.509 0.512 0.171 609.299 o
4 14 3 24.918 23.436 0.553 20.519 o
4 14 4 7.609 7.735 0.392 85.646 o
4 14 5 54.473 56.748 1.246 4.021 o
4 14 6 2.879 3.154 0.311 170.053 o
4 14 7 0.508 0.362 0.161 688.332 o
4 15 0 5.020 5.153 0.693 35.495 o
4 15 1 0.242 0.201 0.241 308.039 o
4 15 2 52.369 54.980 1.718 3.172 o
4 15 3 1.268 1.155 0.201 428.637 o
5 1 0 1849.440 1936.770 20.423 0.005 o
5 1 1 74.153 73.534 0.834 3.036 o
5 1 2 117.671 117.654 1.296 1.206 o
5 1 3 355.216 356.791 3.164 0.137 o
5 1 4 665.220 670.506 6.389 0.039 o
5 1 5 4.869 4.400 0.221 256.040 o
5 1 6 338.814 326.393 3.365 0.152 o
5 1 7 38.918 37.008 0.593 10.258 o
5 1 8 366.564 363.391 4.219 0.124 o
5 1 9 6.507 6.138 0.221 204.434 o
5 1 10 60.791 57.843 0.703 4.594 o
5 1 11 100.373 98.728 1.115 1.670 o
5 1 12 80.759 80.867 0.954 2.514 o
5 1 13 7.276 6.741 0.241 168.901 o
5 1 14 13.051 12.648 0.432 51.873 o
5 1 15 1.713 1.386 0.241 295.829 o
5 1 16 5.965 5.415 0.271 170.021 o
5 1 17 11.095 11.794 0.321 79.452 o
5 1 18 45.843 48.068 0.884 6.292 o
5 2 0 247.827 259.479 3.004 0.258 o
5 2 1 5.797 5.676 0.231 210.970 o
5 2 2 898.030 906.879 8.348 0.021 o
5 2 3 134.619 139.162 1.396 0.914 o
5 2 4 1235.330 1248.620 13.501 0.011 o
5 2 5 157.627 156.119 1.557 0.691 o
5 2 6 10.618 10.005 0.321 86.735 o
5 2 7 306.727 303.468 3.245 0.180 o
5 2 8 3.101 3.174 0.221 308.203 o
5 2 9 167.689 163.191 1.738 0.611 o
5 2 10 11.014 10.025 0.271 98.311 o
5 2 11 73.972 73.072 1.125 2.785 o
5 2 12 11.409 10.779 0.281 90.255 o
5 2 13 0.903 0.824 0.181 536.102 o
5 2 14 81.422 82.093 1.296 2.232 o
5 2 15 13.601 12.627 0.352 61.479 o
5 2 16 13.562 13.521 0.342 61.484 o
5 2 17 2.994 2.883 0.231 290.393 o
5 2 18 6.299 6.620 0.241 184.358 o
5 3 0 67.227 63.177 0.824 3.724 o
5 3 1 751.229 752.237 7.062 0.030 o
5 3 2 268.090 266.661 2.953 0.233 o
5 3 3 448.393 455.127 4.320 0.085 o
5 3 4 203.559 203.504 1.889 0.417 o
5 3 5 312.084 315.563 2.933 0.176 o
5 3 6 200.444 195.548 2.100 0.426 o
5 3 7 344.660 349.287 3.797 0.139 o
5 3 8 19.545 18.584 0.362 37.120 o
5 3 9 48.736 48.058 0.623 6.816 o
5 3 10 4.754 4.440 0.231 242.271 o
5 3 11 223.245 221.556 2.742 0.327 o
5 3 12 58.260 57.843 1.075 4.098 o
5 3 13 36.067 34.778 0.502 12.259 o
5 3 14 1.108 1.336 0.241 301.384 o
5 3 15 4.603 4.922 0.271 189.262 o
5 3 16 0.133 0.191 0.221 366.739 o
5 3 17 8.034 8.931 0.311 109.873 o
5 4 0 16.961 14.978 0.311 51.200 o
5 4 1 3.476 3.054 0.191 381.103 o
5 4 2 110.573 108.171 1.095 1.414 o
5 4 3 13.683 14.184 0.442 47.401 o
5 4 4 22.114 20.724 0.382 30.263 o
5 4 5 30.443 29.605 0.472 16.450 o
5 4 6 19.973 18.534 0.422 33.192 o
5 4 7 698.805 707.685 8.850 0.033 o
5 4 8 27.350 26.510 0.452 19.862 o
5 4 9 529.826 534.548 6.359 0.058 o
5 4 10 36.656 35.501 0.723 10.090 o
5 4 11 28.358 27.083 0.472 18.551 o
5 4 12 10.271 10.578 0.311 89.849 o
5 4 13 0.023 0.241 0.191 491.800 o
5 4 14 0.895 1.055 0.271 240.793 o
5 4 15 11.273 11.321 0.382 67.095 o
5 4 16 1.472 1.346 0.251 275.618 o
5 4 17 0.398 0.372 0.191 489.975 o
5 5 0 53.879 55.844 0.683 5.432 o
5 5 1 242.321 247.062 2.381 0.288 o
5 5 2 0.526 0.723 0.151 777.835 o
5 5 3 373.181 374.230 3.697 0.122 o
5 5 4 45.186 45.647 0.623 7.640 o
5 5 5 617.710 622.960 6.841 0.043 o
5 5 6 0.770 0.944 0.181 537.361 o
5 5 7 151.496 151.910 1.798 0.713 o
5 5 8 0.376 0.332 0.181 546.017 o
5 5 9 44.545 43.919 0.633 7.885 o
5 5 10 105.266 107.549 2.049 1.202 o
5 5 11 136.406 139.524 1.587 0.874 o
5 5 12 5.632 5.676 0.261 181.788 o
5 5 13 88.589 90.742 1.286 1.938 o
5 5 14 0.577 0.502 0.251 282.830 o
5 5 15 0.082 -0.161 0.362 137.020 o
5 5 16 1.315 1.336 0.201 426.378 o
5 5 17 0.297 0.301 0.181 546.672 o
5 6 0 18.269 18.454 0.362 39.754 o
5 6 1 185.312 182.891 1.868 0.499 o
5 6 2 269.092 268.982 2.833 0.233 o
5 6 3 0.133 0.512 0.181 547.022 o
5 6 4 65.610 64.292 0.814 3.807 o
5 6 5 84.735 82.485 1.065 2.282 o
5 6 6 38.418 36.315 0.563 10.723 o
5 6 7 100.884 101.330 1.065 1.651 o
5 6 8 3.365 3.566 0.241 258.423 o
5 6 9 500.241 517.772 6.349 0.063 o
5 6 10 2.999 2.873 0.241 269.668 o
5 6 11 28.149 27.254 0.753 13.718 o
5 6 12 33.862 33.281 1.216 7.008 o
5 6 13 47.736 49.465 0.964 5.684 o
5 6 14 8.699 8.760 0.663 35.002 o
5 6 15 0.049 0.221 0.261 262.654 o
5 6 16 24.649 25.355 0.573 19.530 o
5 7 0 141.770 140.147 1.718 0.817 o
5 7 1 0.985 1.115 0.171 593.964 o
5 7 2 12.389 11.341 0.291 80.386 o
5 7 3 152.863 149.650 1.647 0.727 o
5 7 4 3.269 3.325 0.201 353.746 o
5 7 5 191.251 195.779 1.939 0.458 o
5 7 6 212.734 218.382 2.180 0.369 o
5 7 7 42.398 41.800 0.542 9.004 o
5 7 8 68.690 68.551 0.824 3.469 o
5 7 9 11.753 11.914 0.321 75.906 o
5 7 10 22.485 23.447 0.462 25.282 o
5 7 11 55.578 52.569 1.115 4.392 o
5 7 12 39.310 38.706 0.824 8.393 o
5 7 13 26.021 25.777 0.643 17.000 o
5 7 14 17.641 19.438 0.542 29.325 o
5 7 15 10.271 10.216 0.392 70.665 o
5 7 16 16.861 17.208 0.623 27.054 o
5 8 0 148.598 147.450 1.457 0.778 o
5 8 1 0.023 0.171 0.171 614.366 o
5 8 2 618.795 633.056 8.097 0.041 o
5 8 3 13.411 13.110 0.311 67.446 o
5 8 4 64.970 64.654 0.743 3.930 o
5 8 5 2.417 2.311 0.191 428.391 o
5 8 6 76.498 75.413 0.844 2.875 o
5 8 7 38.690 38.435 0.522 10.590 o
5 8 8 2.292 2.290 0.191 432.543 o
5 8 9 79.583 80.646 1.095 2.460 o
5 8 10 0.572 0.804 0.221 363.915 o
5 8 11 5.640 5.405 0.311 141.737 o
5 8 12 10.002 10.025 0.442 61.627 o
5 8 13 7.289 7.142 0.382 91.600 o
5 8 14 23.251 24.210 0.583 20.631 o
5 8 15 0.802 0.643 0.231 332.367 o
5 9 0 114.443 114.570 1.175 1.293 o
5 9 1 1.771 1.748 0.211 377.553 o
5 9 2 10.162 9.322 0.301 97.483 o
5 9 3 8.997 8.328 0.241 136.341 o
5 9 4 42.076 41.599 0.563 9.006 o
5 9 5 2.244 2.260 0.191 434.440 o
5 9 6 230.547 236.183 2.451 0.312 o
5 9 7 24.887 24.170 0.452 22.889 o
5 9 8 8.492 8.639 0.241 140.446 o
5 9 9 23.928 23.045 1.035 11.183 o
5 9 10 22.092 22.753 0.924 13.492 o
5 9 11 1.760 1.959 0.251 270.513 o
5 9 12 54.481 56.718 0.864 4.908 o
5 9 13 2.592 2.682 0.291 196.031 o
5 9 14 8.744 8.579 0.804 24.967 o
5 10 0 6.627 6.520 0.321 123.836 o
5 10 1 14.830 14.325 0.352 54.578 o
5 10 2 365.125 376.550 4.410 0.120 o
5 10 3 47.461 46.692 0.593 7.245 o
5 10 4 95.385 97.352 1.095 1.795 o
5 10 5 1.059 0.944 0.161 668.034 o
5 10 6 0.022 0.111 0.161 693.613 o
5 10 7 1.419 1.396 0.231 324.170 o
5 10 8 0.500 0.342 0.211 400.964 o
5 10 9 11.618 11.834 0.332 74.656 o
5 10 10 8.300 7.966 0.522 53.219 o
5 10 11 11.353 11.703 0.583 38.558 o
5 10 12 12.726 13.331 0.482 45.755 o
5 10 13 1.569 1.748 0.422 99.262 o
5 11 0 92.969 91.636 1.226 1.856 o
5 11 1 71.597 71.886 1.376 2.640 o
5 11 2 3.844 4.008 0.231 264.077 o
5 11 3 1.037 0.954 0.181 532.290 o
5 11 4 46.252 45.738 0.854 6.513 o
5 11 5 61.181 60.605 0.844 4.212 o
5 11 6 34.386 34.215 0.974 8.650 o
5 11 7 2.517 2.933 0.241 276.358 o
5 11 8 0.015 -0.070 0.392 116.754 o
5 11 9 0.924 1.185 0.201 433.493 o
5 11 10 6.644 6.530 0.281 148.506 o
5 11 11 0.015 0.030 0.231 335.692 o
5 11 12 4.565 4.762 0.251 214.637 o
5 12 0 11.332 11.733 0.542 42.723 o
5 12 1 1.419 1.145 0.231 325.455 o
5 12 2 26.948 26.119 0.553 18.235 o
5 12 3 9.755 9.925 0.311 94.987 o
5 12 4 6.550 6.510 0.281 149.574 o
5 12 5 0.150 -0.080 0.402 110.982 o
5 12 6 3.956 4.259 0.251 227.575 o
5 12 7 39.669 39.389 0.603 9.661 o
5 12 8 22.283 21.568 0.412 28.334 o
5 12 9 24.149 24.170 0.512 21.902 o
5 12 10 8.310 7.926 0.311 111.493 o
5 13 0 33.724 34.145 1.396 5.891 o
5 13 1 25.949 26.541 0.964 11.334 o
5 13 2 2.710 2.752 0.362 129.997 o
5 13 3 22.369 22.462 0.804 15.948 o
5 13 4 2.084 2.381 0.281 214.220 o
5 13 5 21.036 20.182 0.402 31.353 o
5 13 6 0.440 0.100 0.181 546.394 o
5 13 7 7.901 7.675 0.261 141.621 o
5 13 8 1.196 1.256 0.181 525.468 o
5 14 0 11.503 11.553 0.372 67.743 o
5 14 1 1.997 1.808 0.271 232.347 o
5 14 2 0.524 0.563 0.191 488.241 o
5 14 3 0.652 0.874 0.191 485.229 o
5 14 4 0.145 0.060 0.161 693.333 o
5 14 5 0.878 0.884 0.161 674.428 o
5 14 6 3.920 3.878 0.342 136.604 o
5 15 0 0.006 -0.482 0.482 77.076 o
6 0 0 151.161 147.942 1.929 0.712 o
6 0 2 634.089 635.718 8.026 0.040 o
6 0 4 87.389 87.869 1.125 2.092 o
6 0 6 454.863 456.534 6.238 0.076 o
6 0 8 150.406 147.008 1.768 0.736 o
6 0 10 191.599 193.499 2.742 0.420 o
6 0 12 61.694 59.400 0.974 3.996 o
6 0 14 3.877 3.647 0.392 107.151 o
6 0 16 33.095 34.135 0.944 9.158 o
6 1 0 888.891 908.919 9.131 0.021 o
6 1 1 212.097 215.298 2.451 0.364 o
6 1 2 254.318 252.949 2.531 0.264 o
6 1 3 178.922 179.515 1.668 0.538 o
6 1 4 45.999 46.682 0.593 7.509 o
6 1 5 90.170 88.924 1.065 2.035 o
6 1 6 47.468 43.980 0.824 6.587 o
6 1 7 0.365 0.301 0.201 442.721 o
6 1 8 74.337 73.454 0.804 3.054 o
6 1 9 70.886 69.968 0.784 3.344 o
6 1 10 22.785 21.950 0.372 28.878 o
6 1 11 2.189 2.180 0.201 398.968 o
6 1 12 126.194 125.460 1.738 0.989 o
6 1 13 0.533 0.121 0.171 611.346 o
6 1 14 31.828 32.598 0.774 11.351 o
6 1 15 8.498 8.137 0.301 113.661 o
6 1 16 18.920 20.001 0.583 25.841 o
6 1 17 3.777 4.219 0.221 282.163 o
6 2 0 18.930 19.448 0.362 37.466 o
6 2 1 608.240 631.278 6.771 0.044 o
6 2 2 428.684 436.734 5.274 0.087 o
6 2 3 224.559 223.485 2.461 0.332 o
6 2 4 3.178 2.662 0.201 365.944 o
6 2 5 122.811 120.990 1.457 1.096 o
6 2 6 27.722 26.631 0.492 18.763 o
6 2 7 2.263 2.260 0.221 333.621 o
6 2 8 77.181 74.207 0.804 2.902 o
6 2 9 43.397 41.719 0.542 8.776 o
6 2 10 248.950 250.699 3.154 0.259 o
6 2 11 0.908 0.984 0.191 480.958 o
6 2 12 0.081 0.201 0.171 614.179 o
6 2 13 9.586 9.694 0.342 87.490 o
6 2 14 16.415 16.796 0.402 42.459 o
6 2 15 58.810 61.238 0.834 4.392 o
6 2 16 4.990 4.983 0.251 206.551 o
6 2 17 3.396 3.546 0.211 321.085 o
6 3 0 405.602 409.671 4.480 0.101 o
6 3 1 169.865 173.418 2.290 0.541 o
6 3 2 21.595 20.814 0.412 29.713 o
6 3 3 97.667 100.848 1.226 1.662 o
6 3 4 17.724 16.374 0.382 41.686 o
6 3 5 603.348 611.749 6.901 0.045 o
6 3 6 42.845 41.107 0.663 8.371 o
6 3 7 152.730 146.335 1.678 0.734 o
6 3 8 24.864 23.868 0.432 23.587 o
6 3 9 38.540 37.510 0.563 10.505 o
6 3 10 11.149 10.518 0.321 82.475 o
6 3 11 51.272 52.840 0.884 5.371 o
6 3 12 2.155 2.180 0.221 336.231 o
6 3 13 13.293 13.913 0.422 50.971 o
6 3 14 10.411 10.548 0.372 73.965 o
6 3 15 0.586 0.301 0.231 334.254 o
6 3 16 9.738 9.322 0.663 33.983 o
6 3 17 3.760 3.516 0.241 252.346 o
6 4 0 1.217 1.858 0.211 385.782 o
6 4 1 540.852 554.509 5.977 0.056 o
6 4 2 64.697 60.635 0.834 3.968 o
6 4 3 634.725 632.423 7.092 0.041 o
6 4 4 0.604 0.563 0.181 542.594 o
6 4 5 274.174 273.874 2.953 0.223 o
6 4 6 0.565 0.733 0.181 542.004 o
6 4 7 79.903 76.769 0.964 2.615 o
6 4 8 40.330 38.696 0.563 9.825 o
6 4 9 12.505 11.472 0.311 75.353 o
6 4 10 56.665 55.251 1.045 4.372 o
6 4 11 0.034 0.211 0.181 547.955 o
6 4 12 4.843 4.742 0.342 129.217 o
6 4 13 42.753 43.638 1.547 4.310 o
6 4 14 5.138 4.772 0.753 30.292 o
6 4 15 58.035 61.268 1.075 3.997 o
6 4 16 0.927 1.155 0.362 136.027 o
6 5 0 5.898 6.198 0.271 166.189 o
6 5 1 33.857 32.076 0.542 13.294 o
6 5 2 288.944 289.676 3.486 0.195 o
6 5 3 58.339 58.134 0.794 4.638 o
6 5 4 10.783 9.925 0.311 88.755 o
6 5 5 391.320 389.007 4.289 0.109 o
6 5 6 0.394 0.392 0.161 689.748 o
6 5 7 216.131 214.565 2.361 0.360 o
6 5 8 19.854 19.549 0.392 34.131 o
6 5 9 9.586 9.282 0.291 105.077 o
6 5 10 43.749 42.764 0.673 7.970 o
6 5 11 18.424 18.524 0.402 36.881 o
6 5 12 25.550 24.652 0.794 14.487 o
6 5 13 53.105 53.483 1.487 3.651 o
6 5 14 0.859 0.854 0.231 331.351 o
6 5 15 1.146 1.406 0.311 182.073 o
6 5 16 6.494 6.791 0.271 155.886 o
6 6 0 4.240 3.687 0.231 259.533 o
6 6 1 529.084 532.097 5.716 0.060 o
6 6 2 9.564 8.499 0.281 112.085 o
6 6 3 508.726 499.358 5.394 0.066 o
6 6 4 62.159 59.199 0.663 4.476 o
6 6 5 0.038 0.211 0.141 905.632 o
6 6 6 17.503 17.078 0.291 48.182 o
6 6 7 8.239 8.197 0.221 158.212 o
6 6 8 198.631 201.274 2.220 0.418 o
6 6 9 1.815 1.879 0.221 344.272 o
6 6 10 13.121 12.637 0.321 68.061 o
6 6 11 17.065 14.807 0.422 41.537 o
6 6 12 12.367 12.015 0.392 60.461 o
6 6 13 0.963 0.643 0.241 304.642 o
6 6 14 5.397 4.691 0.281 171.505 o
6 6 15 26.075 26.902 0.603 17.491 o
6 7 0 339.652 345.530 4.621 0.135 o
6 7 1 6.983 5.907 0.251 170.891 o
6 7 2 46.184 44.331 0.613 7.616 o
6 7 3 36.727 35.773 0.542 11.512 o
6 7 4 132.717 131.226 1.447 0.956 o
6 7 5 75.610 74.629 0.824 2.949 o
6 7 6 98.609 99.522 1.055 1.718 o
6 7 7 34.731 33.562 0.482 13.219 o
6 7 8 3.988 3.998 0.221 279.935 o
6 7 9 1.040 1.175 0.251 279.165 o
6 7 10 10.890 10.899 0.362 73.507 o
6 7 11 0.307 0.080 0.301 197.203 o
6 7 12 42.880 43.759 1.085 6.070 o
6 7 13 44.060 46.943 1.728 3.646 o
6 7 14 47.910 50.680 0.924 5.734 o
6 7 15 6.996 7.203 0.342 109.142 o
6 8 0 9.022 8.991 0.281 114.543 o
6 8 1 23.383 22.673 0.462 24.760 o
6 8 2 2.693 2.200 0.281 210.320 o
6 8 3 10.408 9.774 0.291 97.454 o
6 8 4 71.508 69.425 0.864 3.245 o
6 8 5 1.482 1.487 0.181 515.068 o
6 8 6 28.052 27.404 0.462 18.834 o
6 8 7 46.479 46.300 0.623 7.344 o
6 8 8 131.961 133.808 1.406 0.957 o
6 8 9 3.933 3.978 0.241 245.585 o
6 8 10 83.952 85.147 1.205 2.178 o
6 8 11 15.486 16.234 0.522 35.230 o
6 8 12 26.517 27.214 0.643 16.369 o
6 8 13 4.237 4.340 0.321 148.459 o
6 8 14 14.177 14.466 0.442 46.022 o
6 9 0 314.563 323.570 3.647 0.164 o
6 9 1 3.787 3.837 0.231 266.821 o
6 9 2 37.060 36.054 0.553 11.273 o
6 9 3 2.044 2.110 0.211 368.984 o
6 9 4 19.970 18.253 0.392 35.012 o
6 9 5 7.496 7.163 0.241 162.817 o
6 9 6 78.034 77.914 1.005 2.634 o
6 9 7 17.484 17.218 0.321 45.772 o
6 9 8 6.723 6.620 0.281 147.219 o
6 9 9 50.772 52.669 0.974 5.170 o
6 9 10 13.922 13.923 0.392 53.005 o
6 9 11 0.138 0.040 0.201 443.839 o
6 9 12 29.315 30.448 0.663 14.009 o
6 9 13 5.349 5.585 0.321 136.387 o
6 10 0 0.803 0.884 0.201 436.855 o
6 10 1 11.276 10.839 0.301 85.821 o
6 10 2 18.476 18.263 0.382 38.264 o
6 10 3 94.469 96.398 1.216 1.776 o
6 10 4 32.440 32.648 0.553 13.661 o
6 10 5 5.616 5.394 0.241 205.094 o
6 10 6 13.454 12.959 0.362 59.941 o
6 10 7 19.688 18.926 0.472 30.759 o
6 10 8 91.756 94.228 1.266 1.835 o
6 10 9 4.708 4.641 0.251 213.381 o
6 10 10 51.624 53.503 0.814 5.493 o
6 10 11 27.406 27.465 0.512 18.308 o
6 10 12 4.317 4.450 0.301 164.500 o
6 11 0 58.609 58.727 1.396 3.429 o
6 11 1 0.098 -0.111 0.402 110.986 o
6 11 2 3.383 3.295 0.251 242.887 o
6 11 3 7.732 7.263 0.342 104.606 o
6 11 4 2.852 2.773 0.402 105.998 o
6 11 5 28.578 28.650 0.512 17.205 o
6 11 6 10.409 9.825 0.402 68.708 o
6 11 7 106.706 109.196 1.607 1.318 o
6 11 8 24.641 24.451 0.442 23.254 o
6 11 9 9.432 9.764 0.311 97.549 o
6 11 10 1.481 1.487 0.201 422.066 o
6 11 11 12.301 13.059 0.542 40.330 o
6 12 0 86.818 90.320 1.507 1.858 o
6 12 1 25.818 25.134 1.115 9.598 o
6 12 2 12.784 12.788 0.462 48.537 o
6 12 3 122.692 126.334 1.728 1.018 o
6 12 4 9.443 9.875 0.362 82.085 o
6 12 5 25.465 26.530 0.542 19.286 o
6 12 6 3.904 3.948 0.231 263.502 o
6 12 7 1.313 1.276 0.191 471.079 o
6 12 8 4.089 3.938 0.221 278.372 o
6 12 9 4.980 5.304 0.221 243.833 o
6 13 0 2.350 2.702 0.281 211.042 o
6 13 1 38.557 40.072 1.457 5.013 o
6 13 2 18.899 18.434 0.693 21.987 o
6 13 3 6.113 6.058 0.281 156.523 o
6 13 4 11.404 11.763 0.362 69.659 o
6 13 5 33.776 35.953 0.623 11.778 o
6 13 6 0.988 0.834 0.211 395.261 o
6 13 7 22.313 23.175 0.472 25.263 o
6 14 0 31.909 32.628 1.487 5.609 o
6 14 1 24.622 26.309 0.603 18.525 o
6 14 2 4.897 4.822 0.342 128.680 o
6 14 3 53.894 57.109 0.974 4.683 o
6 14 4 2.171 1.768 0.191 443.783 o
7 1 0 37.423 36.988 0.593 10.700 o
7 1 1 83.978 80.275 1.145 2.288 o
7 1 2 167.866 163.955 2.341 0.562 o
7 1 3 27.540 26.772 0.502 18.643 o
7 1 4 281.612 275.039 3.184 0.212 o
7 1 5 25.430 24.310 0.573 19.356 o
7 1 6 240.277 234.576 2.481 0.297 o
7 1 7 3.453 2.903 0.191 384.457 o
7 1 8 235.084 228.287 3.064 0.294 o
7 1 9 11.492 10.920 0.271 91.803 o
7 1 10 239.190 239.809 2.592 0.292 o
7 1 11 10.121 9.654 0.261 110.079 o
7 1 12 35.338 33.753 0.482 12.925 o
7 1 13 9.281 9.232 0.382 78.785 o
7 1 14 52.919 53.734 0.753 5.494 o
7 1 15 5.504 5.595 0.402 94.006 o
7 1 16 14.023 13.130 0.472 44.543 o
7 2 0 54.960 54.427 0.784 5.161 o
7 2 1 57.659 56.607 0.984 4.374 o
7 2 2 351.250 344.656 3.657 0.138 o
7 2 3 52.202 50.791 0.934 5.238 o
7 2 4 73.249 67.909 1.105 2.945 o
7 2 5 1.966 1.678 0.231 315.980 o
7 2 6 267.533 265.556 3.988 0.214 o
7 2 7 345.246 349.267 4.300 0.135 o
7 2 8 16.399 16.143 0.402 43.190 o
7 2 9 87.806 84.685 1.135 2.119 o
7 2 10 21.536 19.840 0.442 29.177 o
7 2 11 0.051 -0.402 0.442 91.726 o
7 2 12 118.081 110.221 2.923 0.844 o
7 2 13 13.140 12.376 0.442 50.695 o
7 2 14 48.099 46.170 1.517 4.031 o
7 2 15 1.718 1.658 0.191 457.444 o
7 2 16 10.992 10.879 0.502 48.887 o
7 3 0 26.670 26.460 0.633 16.680 o
7 3 1 166.878 164.045 2.290 0.569 o
7 3 2 2.008 1.597 0.271 233.036 o
7 3 3 486.245 481.447 6.751 0.067 o
7 3 4 1.183 1.437 0.352 143.193 o
7 3 5 72.278 66.823 0.944 3.189 o
7 3 6 22.728 20.794 0.442 27.160 o
7 3 7 0.122 0.050 0.191 491.794 o
7 3 8 233.056 232.908 3.104 0.292 o
7 3 9 2.047 2.100 0.211 369.017 o
7 3 10 7.113 6.982 0.311 123.954 o
7 3 11 106.574 106.283 1.698 1.310 o
7 3 12 19.043 18.615 0.563 27.290 o
7 3 13 70.962 69.576 2.421 1.691 o
7 3 14 1.121 1.135 0.241 302.028 o
7 3 15 7.631 7.886 0.311 116.614 o
7 3 16 23.258 22.583 0.442 25.578 o
7 4 0 219.764 223.154 2.833 0.329 o
7 4 1 7.477 6.942 0.382 91.221 o
7 4 2 44.485 42.895 0.653 7.907 o
7 4 3 42.181 40.042 0.844 7.627 o
7 4 4 13.022 12.045 0.352 64.662 o
7 4 5 206.762 201.797 2.331 0.394 o
7 4 6 4.754 4.651 0.372 112.450 o
7 4 7 229.955 232.386 2.511 0.314 o
7 4 8 1.635 1.979 0.221 346.241 o
7 4 9 157.950 158.791 2.260 0.619 o
7 4 10 17.502 17.459 0.372 41.733 o
7 4 11 61.108 60.816 1.205 3.585 o
7 4 12 69.473 71.424 1.788 2.274 o
7 4 13 1.382 1.236 0.251 276.703 o
7 4 14 0.802 0.824 0.231 331.817 o
7 4 15 0.279 0.261 0.201 443.175 o
7 4 16 0.020 -0.040 0.321 173.420 o
7 5 0 18.969 17.710 0.402 36.636 o
7 5 1 325.184 319.310 4.269 0.152 o
7 5 2 46.349 43.739 0.743 7.104 o
7 5 3 126.329 122.085 1.688 1.012 o
7 5 4 16.797 16.625 0.372 44.244 o
7 5 5 130.287 125.631 1.416 1.007 o
7 5 6 37.944 36.054 0.542 11.060 o
7 5 7 33.819 32.849 0.512 13.464 o
7 5 8 1.044 1.005 0.201 433.093 o
7 5 9 51.274 50.067 0.683 6.113 o
7 5 10 0.700 0.623 0.191 486.143 o
7 5 11 53.605 53.794 1.497 3.596 o
7 5 12 0.992 0.984 0.251 279.990 o
7 5 13 33.822 34.889 0.693 11.250 o
7 5 14 0.399 0.412 0.321 173.160 o
7 5 15 41.111 43.357 0.713 8.230 o
7 6 0 299.487 297.290 3.134 0.189 o
7 6 1 1.325 1.155 0.161 654.842 o
7 6 2 52.120 49.846 0.663 6.071 o
7 6 3 22.641 21.136 0.522 24.228 o
7 6 4 82.129 78.205 0.844 2.585 o
7 6 5 31.198 30.780 0.593 14.111 o
7 6 6 0.148 0.402 0.201 443.391 o
7 6 7 157.605 158.600 1.678 0.674 o
7 6 8 2.147 1.858 0.251 267.165 o
7 6 9 78.633 77.823 0.954 2.651 o
7 6 10 41.538 38.475 0.784 8.230 o
7 6 11 29.946 30.026 0.583 14.996 o
7 6 12 1.344 1.547 0.261 255.588 o
7 6 13 0.156 0.251 0.231 335.484 o
7 6 14 27.024 27.867 0.522 18.232 o
7 6 15 0.020 -0.090 0.372 129.717 o
7 7 0 38.022 36.787 0.633 10.254 o
7 7 1 79.117 77.382 0.995 2.611 o
7 7 2 7.478 7.052 0.332 111.204 o
7 7 3 0.125 -0.040 0.462 83.921 o
7 7 4 81.302 80.907 1.376 2.194 o
7 7 5 67.249 66.271 1.035 3.358 o
7 7 6 151.619 154.080 1.718 0.714 o
7 7 7 40.794 40.936 0.763 8.253 o
7 7 8 41.484 40.906 0.703 8.460 o
7 7 9 32.049 30.669 0.974 9.433 o
7 7 10 48.427 49.234 0.944 5.689 o
7 7 11 2.197 2.401 0.321 165.590 o
7 7 12 0.966 0.964 0.301 195.403 o
7 7 13 6.222 6.690 0.512 59.493 o
7 7 14 1.956 2.371 0.281 215.148 o
7 8 0 49.507 47.526 0.653 6.640 o
7 8 1 20.175 19.217 0.472 29.948 o
7 8 2 168.814 165.472 2.100 0.575 o
7 8 3 0.654 0.502 0.201 440.178 o
7 8 4 263.910 270.187 3.365 0.228 o
7 8 5 0.015 0.121 0.191 491.886 o
7 8 6 16.569 16.776 0.362 45.435 o
7 8 7 3.587 3.476 0.201 342.210 o
7 8 8 5.667 4.983 0.261 185.915 o
7 8 9 4.836 4.802 0.402 97.592 o
7 8 10 22.389 23.075 1.437 7.026 o
7 8 11 20.210 20.674 1.035 12.228 o
7 8 12 71.133 76.387 1.256 2.701 o
7 8 13 0.683 0.804 0.261 260.791 o
7 9 0 37.969 36.536 0.623 10.380 o
7 9 1 73.440 72.841 1.055 2.881 o
7 9 2 17.531 17.168 0.452 36.348 o
7 9 3 4.984 4.531 0.251 210.050 o
7 9 4 9.059 9.232 0.311 101.744 o
7 9 5 0.258 0.452 0.181 546.433 o
7 9 6 96.855 93.344 2.401 1.237 o
7 9 7 1.263 1.256 0.251 277.473 o
7 9 8 97.051 99.522 1.236 1.683 o
7 9 9 19.016 19.629 0.442 32.749 o
7 9 10 28.026 27.987 0.643 15.439 o
7 9 11 0.141 -0.050 0.342 153.607 o
7 9 12 2.185 2.290 0.271 228.983 o
7 10 0 60.177 60.033 0.974 4.080 o
7 10 1 1.369 1.899 0.241 296.695 o
7 10 2 35.982 35.732 0.663 10.751 o
7 10 3 9.141 8.579 0.301 107.197 o
7 10 4 61.475 60.324 2.130 2.215 o
7 10 5 77.286 78.446 1.336 2.380 o
7 10 6 13.553 13.913 0.412 51.542 o
7 10 7 1.299 1.155 0.251 277.575 o
7 10 8 0.908 0.824 0.201 435.992 o
7 10 9 3.847 3.395 0.251 235.534 o
7 10 10 22.450 23.728 0.462 25.172 o
7 10 11 0.350 0.151 0.231 335.214 o
7 11 0 8.649 8.147 0.432 70.249 o
7 11 1 70.765 72.640 2.029 1.998 o
7 11 2 2.368 2.451 0.321 164.709 o
7 11 3 27.404 27.083 0.553 17.658 o
7 11 4 0.144 0.080 0.231 335.604 o
7 11 5 4.189 3.837 0.291 178.029 o
7 11 6 25.559 27.013 0.542 19.059 o
7 11 7 4.416 4.460 0.321 146.850 o
7 11 8 13.446 14.425 0.402 52.383 o
7 11 9 5.117 5.123 0.231 228.747 o
7 11 10 21.541 22.653 0.512 24.899 o
7 12 0 1.638 1.698 0.311 179.932 o
7 12 1 1.819 1.939 0.512 67.429 o
7 12 2 0.068 0.040 0.271 243.586 o
7 12 3 12.428 12.718 0.512 43.509 o
7 12 4 18.656 18.645 0.542 28.646 o
7 12 5 66.544 69.144 1.005 3.358 o
7 12 6 2.193 1.979 0.281 214.866 o
7 12 7 5.519 6.419 0.281 160.922 o
7 12 8 5.390 5.093 0.261 188.883 o
7 13 0 0.035 0.301 0.271 243.549 o
7 13 1 56.232 57.973 1.437 3.488 o
7 13 2 26.528 27.987 0.643 16.169 o
7 13 3 8.947 8.840 0.332 96.593 o
7 13 4 0.462 0.804 0.362 136.693 o
7 13 5 6.003 6.058 0.261 174.419 o
7 13 6 0.015 -0.060 0.301 197.313 o
7 14 0 9.426 10.357 0.774 26.025 o
7 14 1 19.499 21.176 0.522 27.316 o
7 14 2 18.576 19.207 0.553 27.941 o
8 0 0 97.904 98.598 1.808 1.440 o
8 0 2 80.211 79.290 1.326 2.286 o
8 0 4 485.065 479.277 6.841 0.067 o
8 0 6 263.507 250.016 3.908 0.226 o
8 0 8 578.675 583.340 11.000 0.041 o
8 0 10 1.250 1.587 0.251 276.387 o
8 0 12 61.624 61.560 1.768 2.659 o
8 0 14 2.748 2.672 0.402 106.339 o
8 1 0 458.636 461.818 5.023 0.079 o
8 1 1 31.817 31.061 0.563 14.162 o
8 1 2 278.340 273.854 3.827 0.204 o
8 1 3 0.019 0.080 0.201 443.939 o
8 1 4 536.226 527.968 6.580 0.057 o
8 1 5 126.488 123.401 1.527 1.035 o
8 1 6 8.239 8.087 0.352 95.589 o
8 1 7 24.887 22.663 0.553 20.825 o
8 1 8 100.496 96.066 1.205 1.661 o
8 1 9 1.892 1.567 0.171 556.629 o
8 1 10 221.626 216.353 2.702 0.336 o
8 1 11 29.781 27.786 0.653 14.525 o
8 1 12 9.949 9.252 0.301 99.150 o
8 1 13 0.072 0.131 0.191 491.810 o
8 1 14 1.308 1.426 0.201 425.721 o
8 1 15 18.729 18.745 0.362 38.536 o
8 2 0 19.387 18.625 0.422 34.028 o
8 2 1 489.090 497.098 5.605 0.068 o
8 2 2 0.236 0.774 0.231 334.665 o
8 2 3 46.378 42.694 0.713 7.314 o
8 2 4 154.526 152.895 2.682 0.602 o
8 2 5 0.343 0.542 0.281 226.052 o
8 2 6 400.760 390.835 4.983 0.102 o
8 2 7 0.406 0.141 0.251 283.700 o
8 2 8 179.448 176.602 2.089 0.516 o
8 2 9 27.425 25.405 0.392 21.460 o
8 2 10 13.826 12.919 0.402 53.392 o
8 2 11 18.852 16.264 0.753 20.461 o
8 2 12 2.052 1.637 0.261 249.918 o
8 2 13 32.953 32.749 0.864 10.089 o
8 2 14 2.979 2.883 0.251 251.187 o
8 2 15 19.554 20.393 0.502 28.585 o
8 3 0 273.872 275.491 3.596 0.212 o
8 3 1 6.536 6.319 0.261 165.919 o
8 3 2 11.721 11.000 0.342 73.994 o
8 3 3 299.216 289.364 3.767 0.184 o
8 3 4 147.498 141.061 1.738 0.774 o
8 3 5 340.302 335.203 4.169 0.142 o
8 3 6 0.003 0.281 0.382 122.972 o
8 3 7 30.141 26.671 0.784 12.673 o
8 3 8 46.952 46.773 0.753 6.733 o
8 3 9 53.329 52.318 1.045 4.759 o
8 3 10 84.870 82.424 1.607 1.924 o
8 3 11 47.855 47.666 0.784 6.425 o
8 3 12 5.385 5.093 0.301 152.576 o
8 3 13 0.817 0.804 0.241 305.001 o
8 3 14 0.520 0.743 0.221 364.397 o
8 3 15 24.427 24.903 0.472 22.441 o
8 4 0 14.589 13.642 0.392 51.568 o
8 4 1 853.068 846.475 10.658 0.022 o
8 4 2 40.172 37.470 0.663 9.391 o
8 4 3 217.152 207.593 3.164 0.334 o
8 4 4 45.402 43.759 0.743 7.259 o
8 4 5 28.454 28.078 0.733 13.763 o
8 4 6 20.200 19.057 0.663 22.025 o
8 4 7 0.163 0.311 0.352 144.915 o
8 4 8 0.964 1.175 0.261 258.828 o
8 4 9 12.998 12.899 0.352 63.169 o
8 4 10 6.857 5.997 0.271 156.266 o
8 4 11 65.534 67.155 1.567 2.710 o
8 4 12 0.171 -0.111 0.412 105.633 o
8 4 13 56.552 58.636 1.065 4.212 o
8 4 14 3.239 3.064 0.241 264.465 o
8 4 15 22.648 24.210 0.452 25.044 o
8 5 0 0.176 0.623 0.251 283.679 o
8 5 1 40.070 38.425 0.512 10.240 o
8 5 2 0.696 0.472 0.181 541.998 o
8 5 3 370.549 359.332 4.480 0.121 o
8 5 4 19.086 17.771 0.482 31.792 o
8 5 5 182.686 179.867 2.803 0.456 o
8 5 6 5.721 5.656 0.392 97.169 o
8 5 7 37.946 36.877 0.653 10.113 o
8 5 8 24.504 24.260 0.522 21.311 o
8 5 9 59.386 58.797 0.804 4.500 o
8 5 10 21.559 21.156 0.492 26.375 o
8 5 11 16.970 17.459 0.442 37.733 o
8 5 12 39.461 41.398 1.336 5.403 o
8 5 13 1.886 2.130 0.251 268.449 o
8 5 14 8.535 9.292 0.311 105.094 o
8 6 0 1.318 1.236 0.171 582.773 o
8 6 1 166.650 161.393 2.019 0.598 o
8 6 2 27.290 25.486 0.502 19.256 o
8 6 3 129.966 125.108 2.100 0.892 o
8 6 4 5.481 5.033 0.311 144.459 o
8 6 5 0.163 0.432 0.241 307.981 o
8 6 6 95.903 93.013 1.266 1.759 o
8 6 7 56.339 56.667 0.864 4.740 o
8 6 8 28.401 28.982 0.573 16.195 o
8 6 9 0.066 0.100 0.241 308.272 o
8 6 10 16.383 16.867 0.532 32.933 o
8 6 11 1.325 1.617 0.261 255.479 o
8 6 12 0.162 0.462 0.241 307.956 o
8 6 13 101.223 108.955 1.969 1.268 o
8 6 14 0.193 0.422 0.201 443.197 o
8 7 0 57.018 56.738 0.743 4.925 o
8 7 1 50.328 48.802 0.784 6.018 o
8 7 2 243.219 239.377 3.697 0.258 o
8 7 3 102.383 100.115 1.647 1.428 o
8 7 4 4.292 3.988 0.281 186.977 o
8 7 5 42.089 41.097 0.753 8.042 o
8 7 6 26.838 25.968 0.593 17.526 o
8 7 7 3.080 3.225 0.392 110.069 o
8 7 8 15.406 16.415 1.035 13.715 o
8 7 9 5.842 6.007 0.824 25.181 o
8 7 10 56.503 59.992 1.065 4.167 o
8 7 11 4.717 4.973 0.462 76.097 o
8 7 12 25.904 29.072 0.643 16.210 o
8 7 13 3.659 3.657 0.321 154.379 o
8 8 0 4.624 4.109 0.301 163.361 o
8 8 1 53.217 51.896 0.824 5.380 o
8 8 2 4.141 4.551 0.281 185.627 o
8 8 3 17.034 16.435 0.432 39.258 o
8 8 4 68.138 67.125 1.306 2.946 o
8 8 5 39.409 38.846 0.733 8.948 o
8 8 6 165.123 168.144 2.562 0.546 o
8 8 7 0.303 0.452 0.321 173.221 o
8 8 8 54.504 57.230 1.728 3.032 o
8 8 9 2.538 2.612 0.733 32.941 o
8 8 10 18.718 19.740 0.542 27.992 o
8 8 11 0.004 -0.050 0.382 122.979 o
8 8 12 5.390 5.786 0.342 122.997 o
8 9 0 76.511 76.819 1.527 2.262 o
8 9 1 0.150 0.131 0.211 402.504 o
8 9 2 107.768 105.650 1.477 1.368 o
8 9 3 11.484 11.000 0.462 53.395 o
8 9 4 27.133 23.959 0.954 11.500 o
8 9 5 0.557 0.723 0.301 196.541 o
8 9 6 37.737 37.520 1.115 6.907 o
8 9 7 30.762 31.423 0.643 13.499 o
8 9 8 54.398 54.498 0.995 4.703 o
8 9 9 0.065 0.623 0.623 46.190 o
8 9 10 46.311 47.707 1.597 3.866 o
8 9 11 0.407 0.512 0.241 307.319 o
8 10 0 1.751 1.848 0.332 158.695 o
8 10 1 0.473 0.502 0.301 196.832 o
8 10 2 0.072 0.100 0.281 226.490 o
8 10 3 12.090 11.804 0.472 49.788 o
8 10 4 7.999 7.976 0.402 80.621 o
8 10 5 21.393 21.920 0.673 20.000 o
8 10 6 164.074 170.153 2.280 0.569 o
8 10 7 3.391 3.657 0.271 210.586 o
8 10 8 22.901 23.517 0.482 24.185 o
8 10 9 0.009 0.221 0.663 40.767 o
8 10 10 0.043 -0.623 0.613 47.724 o
8 11 0 4.714 4.862 0.372 112.172 o
8 11 1 2.871 3.094 0.342 143.459 o
8 11 2 18.743 18.454 0.563 27.672 o
8 11 3 41.340 42.282 0.864 7.471 o
8 11 4 30.065 30.408 0.703 13.158 o
8 11 5 0.540 0.954 0.452 87.507 o
8 11 6 5.736 5.806 0.281 161.867 o
8 11 7 19.087 18.996 0.422 34.208 o
8 11 8 33.877 35.943 1.195 6.981 o
8 12 0 15.398 16.354 0.512 36.005 o
8 12 1 39.911 41.860 0.844 7.864 o
8 12 2 1.734 1.718 0.422 99.086 o
8 12 3 14.968 15.309 0.864 18.609 o
8 12 4 2.835 3.004 0.301 181.414 o
8 12 5 1.543 1.637 0.261 253.908 o
8 12 6 6.245 6.801 0.281 151.234 o
8 13 0 11.247 11.020 0.412 62.119 o
8 13 1 1.872 2.300 0.281 215.953 o
8 13 2 5.452 5.425 0.462 74.128 o
8 13 3 8.392 8.700 0.362 89.826 o
8 13 4 0.930 0.794 0.231 331.073 o
9 1 0 2.717 2.039 0.191 423.242 o
9 1 1 9.666 9.393 0.261 115.221 o
9 1 2 385.518 380.097 3.817 0.116 o
9 1 3 40.477 38.254 0.522 10.087 o
9 1 4 129.398 126.053 1.396 1.017 o
9 1 5 18.213 17.721 0.713 21.883 o
9 1 6 175.806 175.246 2.190 0.524 o
9 1 7 20.883 19.770 0.472 28.736 o
9 1 8 0.404 0.814 0.251 282.884 o
9 1 9 0.296 0.522 0.231 334.869 o
9 1 10 55.951 55.422 0.854 4.854 o
9 1 11 12.043 12.276 0.372 64.447 o
9 1 12 22.313 21.729 0.753 17.339 o
9 1 13 16.915 16.796 0.422 39.891 o
9 1 14 0.030 -0.171 0.342 153.617 o
9 2 0 191.407 188.225 2.130 0.459 o
9 2 1 5.056 4.490 0.301 158.045 o
9 2 2 157.612 152.884 1.758 0.682 o
9 2 3 47.918 46.120 0.804 6.450 o
9 2 4 2.461 1.858 0.301 187.285 o
9 2 5 54.187 50.399 1.085 4.661 o
9 2 6 64.094 62.635 1.256 3.300 o
9 2 7 54.802 53.995 1.155 4.301 o
9 2 8 0.445 0.332 0.261 262.089 o
9 2 9 89.778 84.906 2.120 1.507 o
9 2 10 0.111 0.171 0.221 366.784 o
9 2 11 0.057 0.121 0.191 491.839 o
9 2 12 42.062 43.729 0.713 8.006 o
9 2 13 10.559 9.784 0.332 84.950 o
9 2 14 36.050 36.827 1.939 3.574 o
9 3 0 25.413 23.557 0.442 22.950 o
9 3 1 29.616 26.902 0.472 17.778 o
9 3 2 95.950 92.882 1.748 1.540 o
9 3 3 8.681 8.067 0.372 86.751 o
9 3 4 56.308 53.734 0.844 4.923 o
9 3 5 113.235 112.963 1.477 1.247 o
9 3 6 9.485 8.840 0.502 53.634 o
9 3 7 2.966 2.572 0.452 84.530 o
9 3 8 16.381 15.179 0.663 26.246 o
9 3 9 77.193 68.823 1.899 2.019 o
9 3 10 69.636 74.117 4.340 0.758 o
9 3 11 48.331 49.836 1.095 5.164 o
9 3 12 0.310 0.492 0.231 334.874 o
9 3 13 30.528 31.483 0.864 10.844 o
9 3 14 3.148 3.436 0.241 262.962 o
9 4 0 14.022 12.889 0.382 55.480 o
9 4 1 120.672 117.243 1.577 1.113 o
9 4 2 10.453 10.658 0.392 69.212 o
9 4 3 23.967 22.030 0.653 18.977 o
9 4 4 0.002 -0.040 0.512 68.275 o
9 4 5 26.232 24.863 0.542 19.332 o
9 4 6 1.121 0.482 0.362 136.206 o
9 4 7 257.627 264.763 4.581 0.210 o
9 4 8 0.008 0.020 0.332 163.069 o
9 4 9 102.276 100.808 2.341 1.168 o
9 4 10 18.386 18.243 0.542 29.161 o
9 4 11 0.651 1.256 0.301 195.821 o
9 4 12 0.048 -0.030 0.522 65.674 o
9 4 13 0.265 0.362 0.211 401.921 o
9 4 14 13.742 13.813 0.563 36.062 o
9 5 0 48.962 46.310 0.874 6.044 o
9 5 1 29.461 27.676 0.532 16.639 o
9 5 2 50.547 46.572 0.954 5.569 o
9 5 3 9.359 9.142 0.462 60.612 o
9 5 4 80.999 78.828 1.256 2.323 o
9 5 5 53.126 51.243 1.256 4.265 o
9 5 6 31.311 29.424 0.804 11.619 o
9 5 7 3.178 3.496 0.392 109.431 o
9 5 8 4.935 4.661 0.733 31.994 o
9 5 9 42.777 42.523 2.250 2.636 o
9 5 10 0.710 0.974 0.301 196.004 o
9 5 11 89.147 93.264 3.717 0.829 o
9 5 12 1.704 1.758 0.231 318.825 o
9 5 13 12.434 13.732 0.462 48.276 o
9 6 0 89.795 87.548 1.286 1.947 o
9 6 1 42.024 41.498 1.035 6.544 o
9 6 2 99.603 95.504 1.698 1.484 o
9 6 3 20.900 19.097 1.065 11.741 o
9 6 4 10.467 9.965 0.362 77.303 o
9 6 5 65.335 64.593 1.406 2.981 o
9 6 6 4.951 5.103 0.301 156.309 o
9 6 7 75.076 67.708 1.828 2.142 o
9 6 8 11.654 11.131 0.884 19.758 o
9 6 9 27.027 28.469 0.834 12.657 o
9 6 10 21.897 22.914 0.593 21.796 o
9 6 11 16.300 17.218 0.512 34.128 o
9 6 12 19.402 19.720 1.205 9.870 o
9 7 0 2.054 2.039 0.171 540.360 o
9 7 1 1.757 1.979 0.201 411.406 o
9 7 2 61.278 59.460 0.763 4.383 o
9 7 3 0.322 0.181 0.201 443.166 o
9 7 4 176.124 174.121 3.164 0.456 o
9 7 5 15.903 15.149 0.462 40.104 o
9 7 6 15.232 14.767 0.502 38.229 o
9 7 7 9.360 8.740 0.422 69.513 o
9 7 8 74.847 74.197 1.939 1.977 o
9 7 9 0.465 0.241 0.261 262.138 o
9 7 10 0.038 0.291 0.261 262.640 o
9 7 11 38.569 41.780 1.507 4.757 o
9 7 12 0.646 0.482 0.653 41.998 o
9 8 0 255.211 263.788 3.154 0.244 o
9 8 1 18.871 18.163 0.743 20.288 o
9 8 2 84.064 83.268 1.336 2.115 o
9 8 3 21.629 19.951 0.462 28.163 o
9 8 4 7.365 6.710 0.382 92.202 o
9 8 5 12.206 12.979 1.005 15.488 o
9 8 6 2.248 2.009 0.753 31.323 o
9 8 7 6.765 6.540 0.874 22.222 o
9 8 9 9.090 8.720 0.824 23.732 o
9 8 10 5.877 5.595 0.753 29.893 o
9 8 11 0.297 0.211 0.593 51.005 o
9 9 0 2.071 2.079 0.332 157.209 o
9 9 1 22.163 21.668 0.603 21.744 o
9 9 2 41.351 40.142 0.844 7.761 o
9 9 3 69.783 70.259 1.527 2.564 o
9 9 4 187.688 197.507 5.234 0.288 o
9 9 5 17.876 17.630 0.763 20.262 o
9 9 6 5.432 5.746 0.864 23.107 o
9 9 7 8.997 8.971 0.964 17.797 o
9 9 9 1.854 2.110 0.653 41.681 o
9 9 10 6.373 6.901 0.774 28.037 o
9 10 0 45.996 47.405 2.672 1.949 o
9 10 1 0.726 0.984 0.301 195.958 o
9 10 2 63.434 67.065 2.481 1.768 o
9 10 3 14.632 15.259 0.512 37.947 o
9 10 4 5.218 4.993 0.352 120.425 o
9 10 5 47.404 47.968 0.904 6.025 o
9 10 6 29.629 29.363 0.643 14.401 o
9 10 7 22.271 24.019 1.266 8.536 o
9 10 8 0.211 0.251 0.844 25.166 o
9 11 0 1.938 2.321 0.321 166.858 o
9 11 1 73.883 75.945 2.029 1.904 o
9 11 2 7.639 7.213 0.382 89.941 o
9 11 3 17.356 18.574 0.784 19.598 o
9 11 4 45.736 47.516 1.135 5.377 o
9 11 5 0.107 0.060 0.241 308.260 o
9 11 6 0.028 0.201 0.241 308.265 o
9 11 7 0.403 0.201 0.231 335.022 o
9 12 0 18.921 19.157 0.784 18.711 o
9 12 1 3.099 3.466 0.442 87.309 o
9 12 2 9.993 10.598 0.402 68.808 o
9 12 3 11.190 12.587 0.422 58.298 o
9 12 4 14.230 14.164 0.804 21.382 o
10 0 0 45.261 44.964 0.763 7.096 o
10 0 2 26.900 25.787 0.553 18.370 o
10 0 4 224.904 224.590 3.647 0.292 o
10 0 6 223.245 224.791 3.747 0.290 o
10 0 8 102.506 89.557 2.110 1.315 o
10 0 10 3.768 3.134 0.653 40.876 o
10 0 12 1.000 0.834 0.583 52.657 o
10 1 0 134.511 135.325 1.597 0.903 o
10 1 1 0.315 0.221 0.181 546.814 o
10 1 2 98.572 97.282 1.035 1.749 o
10 1 3 45.701 44.161 0.603 7.765 o
10 1 4 36.242 35.592 0.623 11.035 o
10 1 5 19.420 18.685 0.442 32.849 o
10 1 6 12.289 11.623 0.372 64.737 o
10 1 7 19.702 19.197 0.583 25.497 o
10 1 8 193.639 184.689 2.843 0.420 o
10 1 9 8.879 8.539 0.402 76.374 o
10 1 10 32.147 30.388 0.683 12.662 o
10 1 11 0.881 1.005 0.271 240.945 o
10 1 12 55.682 55.201 0.964 4.636 o
10 1 13 2.869 2.763 0.271 220.662 o
10 2 0 1.368 1.517 0.231 324.080 o
10 2 1 194.304 193.057 2.110 0.445 o
10 2 2 16.750 16.153 0.382 44.073 o
10 2 3 108.970 106.835 1.718 1.270 o
10 2 4 165.816 165.190 2.110 0.586 o
10 2 5 20.228 19.730 0.663 21.778 o
10 2 6 61.806 61.560 1.366 3.261 o
10 2 7 1.678 1.236 0.362 134.725 o
10 2 8 90.319 89.105 2.160 1.449 o
10 2 9 25.533 24.110 1.175 9.053 o
10 2 10 3.550 2.391 0.653 41.112 o
10 2 11 94.447 91.315 2.240 1.345 o
10 2 12 4.376 4.842 0.733 32.154 o
10 2 13 3.414 3.456 0.683 37.505 o
10 3 0 1.607 1.637 0.291 205.138 o
10 3 1 43.722 41.780 0.613 8.364 o
10 3 2 176.926 174.563 1.929 0.539 o
10 3 3 70.746 71.093 1.045 3.051 o
10 3 4 0.796 0.944 0.271 241.363 o
10 3 5 167.988 172.725 4.993 0.343 o
10 3 6 1.668 1.236 0.362 134.745 o
10 3 7 190.150 188.456 6.690 0.227 o
10 3 8 8.685 8.941 0.864 21.865 o
10 3 9 4.657 4.521 0.753 30.483 o
10 3 10 21.623 21.166 1.145 10.237 o
10 3 11 0.081 0.573 0.623 46.191 o
10 3 12 29.757 28.841 1.276 7.303 o
10 3 13 10.820 11.111 0.884 20.023 o
10 4 0 17.796 16.515 0.382 41.384 o
10 4 1 190.656 187.803 2.089 0.464 o
10 4 2 4.311 3.878 0.311 157.877 o
10 4 3 94.860 93.264 1.286 1.770 o
10 4 4 2.025 2.069 0.271 231.149 o
10 4 5 11.890 11.171 0.392 63.379 o
10 4 6 21.297 21.236 1.195 9.634 o
10 4 7 42.718 43.980 1.517 4.400 o
10 4 8 10.512 10.005 0.894 19.885 o
10 4 9 86.903 87.749 2.200 1.484 o
10 4 10 7.007 7.293 0.844 23.577 o
10 4 11 64.175 65.809 1.889 2.372 o
10 4 12 6.245 5.766 0.763 28.991 o
10 5 0 48.240 45.416 0.814 6.417 o
10 5 1 1.459 1.778 0.251 273.995 o
10 5 2 0.406 0.121 0.251 283.717 o
10 5 3 168.903 171.198 2.381 0.542 o
10 5 4 0.698 0.964 0.311 183.673 o
10 5 5 161.650 162.840 2.592 0.565 o
10 5 6 12.129 10.789 0.884 19.662 o
10 5 7 95.837 94.770 2.250 1.304 o
10 5 8 0.646 0.663 0.593 50.956 o
10 5 9 37.118 36.546 1.406 5.469 o
10 5 10 13.089 13.069 0.954 16.690 o
10 5 11 0.081 0.211 0.593 51.013 o
10 5 12 1.358 1.035 0.603 49.127 o
10 6 0 1.093 1.055 0.181 530.071 o
10 6 1 137.910 131.909 2.441 0.761 o
10 6 2 55.347 53.614 0.844 5.021 o
10 6 3 67.966 66.211 0.984 3.386 o
10 6 4 33.106 32.307 1.035 8.543 o
10 6 5 2.710 2.883 0.352 136.888 o
10 6 6 21.012 20.493 0.643 21.671 o
10 6 7 5.611 6.017 0.743 30.683 o
10 6 8 5.825 5.716 0.743 30.659 o
10 6 9 60.192 60.254 1.778 2.709 o
10 6 10 2.804 2.682 0.643 42.605 o
10 7 0 112.574 110.060 1.617 1.235 o
10 7 1 39.809 38.786 0.854 8.099 o
10 7 2 2.324 2.300 0.251 262.836 o
10 7 3 79.838 77.512 1.316 2.332 o
10 7 4 25.243 25.265 0.673 16.903 o
10 7 5 29.749 29.012 0.713 13.397 o
10 7 6 16.157 16.083 0.512 35.115 o
10 7 7 23.517 24.029 1.145 9.709 o
10 7 8 12.745 13.069 0.904 18.385 o
10 7 9 29.091 29.584 1.236 7.652 o
10 8 0 52.315 53.634 1.537 3.575 o
10 8 1 1.732 1.838 0.342 149.799 o
10 8 2 53.429 55.281 1.919 2.773 o
10 8 3 15.718 15.380 1.095 12.524 o
10 8 4 8.794 7.474 0.904 20.275 o
10 8 5 14.832 13.973 1.055 13.637 o
10 8 6 131.441 133.265 2.823 0.729 o
10 8 7 1.661 2.009 0.784 29.046 o
10 9 0 54.923 56.557 2.421 2.038 o
10 9 1 5.543 5.324 0.442 80.051 o
10 9 2 24.870 25.154 1.276 8.068 o
10 9 3 11.502 11.281 0.452 54.512 o
10 9 4 8.224 7.725 0.934 19.174 o
10 9 5 0.594 0.542 0.763 30.728 o
10 9 6 11.768 11.372 1.005 15.746 o
10 9 7 16.393 15.792 1.105 12.184 o
10 10 0 1.423 1.155 0.301 193.701 o
10 10 1 6.634 6.881 0.392 91.221 o
10 10 2 16.078 15.691 0.522 34.788 o
10 10 3 3.319 4.038 0.332 146.943 o
10 10 4 21.575 22.974 1.336 7.973 o
10 10 5 0.038 -0.060 0.743 32.429 o
10 10 6 24.135 23.547 1.256 8.443 o
10 11 0 16.857 17.479 0.502 33.837 o
10 11 1 28.495 30.127 1.999 3.734 o
10 11 2 0.390 0.141 0.261 262.351 o
10 11 3 11.938 11.995 0.442 54.054 o
10 11 4 5.825 5.897 0.321 131.849 o
10 12 0 0.458 0.301 0.241 307.472 o
10 12 1 12.779 13.983 0.934 17.260 o
11 1 0 221.337 226.770 3.174 0.312 o
11 1 1 56.964 56.487 0.683 5.063 o
11 1 2 237.323 240.613 2.501 0.297 o
11 1 3 5.294 5.153 0.261 189.761 o
11 1 4 98.005 97.121 1.296 1.664 o
11 1 5 0.053 0.131 0.201 443.891 o
11 1 6 8.257 7.625 0.954 18.429 o
11 1 7 3.212 3.195 0.301 178.114 o
11 1 8 43.377 41.659 0.814 7.445 o
11 1 9 43.208 42.362 0.814 7.414 o
11 1 10 1.127 1.607 0.261 256.759 o
11 1 11 0.633 1.145 0.241 305.075 o
11 1 12 0.943 0.753 0.221 361.449 o
11 2 0 316.817 320.516 3.707 0.163 o
11 2 1 15.596 14.697 0.462 41.068 o
11 2 2 0.817 1.477 0.281 223.615 o
11 2 3 109.888 108.633 1.467 1.321 o
11 2 4 20.873 20.543 0.563 24.648 o
11 2 5 115.728 113.385 2.100 1.055 o
11 2 6 11.517 11.191 0.874 20.186 o
11 2 7 9.117 8.840 0.824 23.701 o
11 2 8 0.196 0.332 0.583 52.780 o
11 2 9 0.179 0.121 0.563 56.623 o
11 2 10 58.037 58.144 1.758 2.844 o
11 2 11 2.756 2.642 0.653 41.349 o
11 2 12 7.862 7.936 0.784 26.620 o
11 3 0 56.335 55.502 0.753 5.033 o
11 3 1 70.347 67.296 0.864 3.366 o
11 3 2 68.778 68.250 1.015 3.252 o
11 3 3 30.058 29.605 0.603 14.748 o
11 3 4 31.927 31.714 0.623 13.232 o
11 3 5 6.822 6.901 0.763 28.557 o
11 3 6 3.994 3.707 0.683 37.249 o
11 3 7 101.888 101.461 2.361 1.161 o
11 3 8 13.681 13.260 0.954 16.511 o
11 3 9 59.605 59.159 1.778 2.745 o
11 3 10 0.505 0.763 0.593 50.966 o
11 3 11 0.428 0.924 0.603 49.283 o
11 4 0 56.271 55.994 0.784 4.951 o
11 4 1 33.076 33.361 0.542 13.352 o
11 4 2 31.760 31.142 0.613 13.538 o
11 4 3 137.620 137.163 2.501 0.739 o
11 4 4 1.026 1.336 0.301 194.710 o
11 4 5 290.296 301.269 5.013 0.167 o
11 4 6 0.923 0.713 0.603 49.234 o
11 4 7 12.031 12.617 0.944 17.331 o
11 4 8 1.690 2.572 0.673 39.235 o
11 4 9 5.534 4.711 0.733 31.767 o
11 4 10 1.950 1.899 0.643 42.985 o
11 4 11 1.962 1.858 0.623 45.780 o
11 5 0 9.655 9.302 0.301 100.990 o
11 5 1 62.525 58.395 1.055 3.834 o
11 5 2 43.955 41.599 0.723 7.798 o
11 5 3 60.050 58.666 2.069 2.338 o
11 5 4 5.014 4.812 0.392 101.365 o
11 5 5 28.833 29.333 0.723 13.534 o
11 5 6 21.169 21.327 1.135 10.434 o
11 5 7 102.033 101.642 2.381 1.152 o
11 5 8 14.408 14.385 0.964 15.894 o
11 5 9 34.077 36.004 1.396 5.785 o
11 5 10 2.401 2.411 0.643 42.785 o
11 6 0 13.579 12.617 0.452 48.204 o
11 6 1 90.408 90.622 2.220 1.408 o
11 6 2 37.103 36.636 1.738 4.148 o
11 6 3 92.783 94.298 3.365 0.914 o
11 6 4 3.591 3.205 0.402 103.661 o
11 6 5 54.097 55.040 1.035 4.607 o
11 6 6 0.598 0.553 0.291 210.354 o
11 6 7 36.067 38.053 1.437 5.352 o
11 6 8 18.521 19.308 1.055 12.371 o
11 6 9 8.967 8.268 0.804 24.942 o
11 6 10 10.212 10.277 0.834 22.543 o
11 7 0 14.562 13.612 0.412 49.382 o
11 7 1 24.617 23.929 0.623 18.778 o
11 7 2 26.380 26.591 0.663 16.205 o
11 7 3 16.504 15.732 0.522 34.183 o
11 7 4 48.012 49.053 0.934 5.781 o
11 7 5 22.003 22.080 1.105 10.647 o
11 7 6 37.105 39.740 1.095 6.965 o
11 7 7 28.829 27.967 1.216 7.953 o
11 7 8 1.105 1.718 0.583 52.536 o
11 7 9 8.326 8.760 0.774 26.881 o
11 8 0 48.004 49.967 0.954 5.661 o
11 8 1 4.609 4.762 0.904 21.383 o
11 8 2 12.640 12.728 1.065 13.927 o
11 8 3 3.212 3.526 0.844 24.803 o
11 8 4 4.090 3.998 0.844 24.625 o
11 8 5 26.465 25.948 1.306 7.581 o
11 8 6 0.013 -0.080 0.763 30.745 o
11 9 0 12.358 12.728 0.462 49.519 o
11 9 1 3.518 4.089 0.342 138.116 o
11 9 2 65.601 64.895 1.939 2.289 o
11 9 3 2.038 2.160 0.824 26.251 o
11 9 4 25.742 25.215 1.296 7.785 o
11 9 5 6.665 6.228 0.904 20.889 o
11 9 6 7.388 7.655 0.954 18.590 o
11 10 0 49.287 51.424 1.959 2.882 o
11 10 1 2.597 3.174 0.321 161.816 o
11 10 2 1.142 1.487 0.281 222.282 o
11 10 3 3.197 3.777 0.834 25.378 o
11 10 4 19.505 20.111 1.195 9.962 o
11 11 0 7.270 7.263 0.342 107.334 o
11 11 1 2.974 3.054 0.512 66.114 o
12 0 0 0.262 0.502 0.231 334.996 o
12 0 2 3.428 3.586 0.291 185.881 o
12 0 4 91.692 97.965 2.240 1.338 o
12 0 6 172.951 181.394 3.767 0.411 o
12 0 8 3.095 3.195 0.643 42.399 o
12 0 10 7.079 7.775 0.763 28.275 o
12 1 0 1.326 1.537 0.201 424.426 o
12 1 1 63.872 64.825 0.944 3.721 o
12 1 2 25.279 25.576 0.422 22.645 o
12 1 3 6.422 6.078 0.332 121.264 o
12 1 4 15.560 15.862 0.583 31.272 o
12 1 5 0.247 0.683 0.281 226.088 o
12 1 6 2.460 2.582 0.382 118.152 o
12 1 7 12.546 11.794 0.422 55.657 o
12 1 8 62.666 64.192 1.818 2.522 o
12 1 9 0.155 -0.583 0.542 60.897 o
12 1 10 72.937 77.703 2.009 1.922 o
12 2 0 1.504 1.778 0.231 321.109 o
12 2 1 3.850 3.837 0.261 217.738 o
12 2 2 5.953 5.314 0.452 76.021 o
12 2 3 0.418 -0.121 0.482 77.051 o
12 2 4 3.310 2.622 0.382 115.798 o
12 2 5 2.132 2.712 0.683 37.985 o
12 2 6 167.805 179.114 3.777 0.424 o
12 2 7 20.489 21.026 1.115 10.860 o
12 2 8 3.171 3.496 0.693 36.521 o
12 2 9 1.554 1.457 0.633 44.497 o
12 2 10 0.059 -0.060 0.583 52.789 o
12 3 0 5.821 5.736 0.271 169.830 o
12 3 1 121.616 120.487 2.140 0.965 o
12 3 2 0.616 0.683 0.382 122.652 o
12 3 3 125.702 130.523 3.235 0.692 o
12 3 4 47.896 49.525 0.974 5.628 o
12 3 5 3.642 3.546 0.713 34.389 o
12 3 6 0.912 1.376 0.633 44.622 o
12 3 7 7.737 7.353 0.814 24.986 o
12 3 8 25.340 26.239 1.236 8.324 o
12 3 9 29.026 29.584 1.286 7.267 o
12 3 10 2.854 3.084 0.683 37.743 o
12 4 0 30.944 30.428 0.623 13.895 o
12 4 1 62.774 63.920 1.216 3.397 o
12 4 2 2.644 2.582 0.362 130.485 o
12 4 3 5.154 5.324 0.402 95.667 o
12 4 4 12.602 12.858 0.502 44.183 o
12 4 5 34.032 35.260 1.396 5.819 o
12 4 6 7.278 7.313 0.814 25.144 o
12 4 7 0.600 1.095 0.623 46.131 o
12 4 8 2.875 3.215 0.693 36.651 o
12 4 9 6.430 7.956 0.824 24.738 o
12 5 0 55.535 55.532 0.884 4.819 o
12 5 1 117.095 118.569 2.411 0.944 o
12 5 2 0.844 0.563 0.311 183.773 o
12 5 3 54.320 55.361 1.487 3.544 o
12 5 4 3.163 3.174 0.352 134.567 o
12 5 5 12.950 14.024 0.502 42.572 o
12 5 6 0.148 0.362 0.573 54.650 o
12 5 7 3.438 4.259 0.713 34.342 o
12 5 8 19.224 20.383 1.095 11.449 o
12 5 9 18.870 20.292 1.075 11.854 o
12 6 0 34.419 34.426 0.874 9.471 o
12 6 1 25.519 26.500 1.316 7.568 o
12 6 2 5.244 5.274 0.372 108.978 o
12 6 3 45.737 45.808 1.145 5.421 o
12 6 4 60.497 63.438 1.125 3.683 o
12 6 5 0.018 -0.111 0.392 116.754 o
12 6 6 9.258 8.900 0.814 24.164 o
12 6 7 0.087 0.100 0.532 63.217 o
12 6 8 3.383 3.426 0.643 42.232 o
12 7 0 4.963 4.581 0.352 122.835 o
12 7 1 39.068 40.846 1.507 4.755 o
12 7 2 24.603 24.612 1.025 11.018 o
12 7 3 1.028 0.603 0.442 91.377 o
12 7 4 0.709 1.015 0.281 224.730 o
12 7 5 1.022 0.995 0.281 223.745 o
12 7 6 22.755 24.622 1.145 9.782 o
12 7 7 0.050 0.251 0.512 68.271 o
12 8 0 5.530 5.887 0.924 20.260 o
12 8 1 1.507 1.527 0.814 26.977 o
12 8 2 11.697 12.085 1.045 14.633 o
12 8 3 12.196 11.181 1.035 14.878 o
12 8 4 74.401 77.753 2.089 1.829 o
12 8 5 0.014 0.291 0.784 29.188 o
12 9 0 0.043 0.342 0.784 29.188 o
12 9 1 2.138 1.457 0.804 27.599 o
12 9 2 7.862 6.379 0.924 19.784 o
12 9 3 0.428 0.864 0.784 29.174 o
12 10 0 16.402 17.801 0.472 36.284 o
13 1 0 17.867 18.916 0.502 31.532 o
13 1 1 1.198 0.974 0.281 223.117 o
13 1 2 168.217 175.628 2.381 0.536 o
13 1 3 3.924 3.928 0.382 111.730 o
13 1 4 128.369 141.643 2.943 0.704 o
13 1 5 6.791 7.916 0.804 25.794 o
13 1 6 16.123 16.204 1.005 14.251 o
13 1 7 8.461 9.403 0.844 22.817 o
13 1 8 13.098 14.235 0.944 16.832 o
13 2 0 26.682 27.485 0.864 12.462 o
13 2 1 16.470 15.732 0.743 22.309 o
13 2 2 40.142 41.589 0.864 7.731 o
13 2 3 14.870 15.169 0.532 36.066 o
13 2 4 7.959 7.655 0.814 24.859 o
13 2 5 70.776 74.197 1.989 2.018 o
13 2 6 28.696 30.559 1.296 7.174 o
13 2 7 4.937 5.234 0.763 29.522 o
13 2 8 63.739 71.394 1.929 2.267 o
13 3 0 27.907 28.600 0.603 16.039 o
13 3 1 45.239 46.340 0.784 6.906 o
13 3 2 4.997 5.214 0.382 105.297 o
13 3 3 0.165 0.181 0.311 184.736 o
13 3 4 52.355 56.597 1.477 3.632 o
13 3 5 19.050 19.830 1.095 11.531 o
13 3 6 18.436 19.298 1.085 11.861 o
13 3 7 20.318 21.789 1.125 10.678 o
13 3 8 0.657 0.553 0.603 49.278 o
13 4 0 4.038 3.697 0.311 160.513 o
13 4 1 39.231 39.911 1.035 7.018 o
13 4 2 26.953 27.435 0.663 15.724 o
13 4 3 94.834 101.843 1.778 1.474 o
13 4 4 19.480 20.925 0.583 24.926 o
13 4 5 39.153 42.021 1.487 4.788 o
13 4 6 1.824 1.426 0.593 50.622 o
13 4 7 23.703 26.661 1.216 8.708 o
13 5 0 1.689 1.818 0.321 168.754 o
13 5 1 7.796 7.213 0.392 85.940 o
13 5 2 2.724 3.004 0.502 68.966 o
13 5 3 3.816 3.988 0.342 136.858 o
13 5 4 1.090 1.396 0.301 194.418 o
13 5 5 7.235 8.298 0.804 25.575 o
13 5 6 0.191 0.412 0.542 60.885 o
13 6 0 14.214 14.255 1.035 14.185 o
13 6 1 3.058 2.963 0.321 159.919 o
13 6 2 1.959 2.311 0.301 188.781 o
13 6 3 56.177 59.088 2.361 2.064 o
13 6 4 0.442 0.743 0.291 210.461 o
13 6 5 37.680 40.414 1.447 5.104 o
13 7 0 14.202 14.677 0.462 43.717 o
13 7 1 0.080 0.040 0.281 226.496 o
13 7 2 63.029 67.004 1.115 3.455 o
13 7 3 11.130 11.221 1.035 15.069 o
13 7 4 8.709 8.599 0.984 17.218 o
13 8 0 71.492 71.856 2.019 2.000 o
13 8 1 0.024 0.141 0.231 335.670 o
13 8 2 1.204 1.537 0.814 26.999 o
14 0 0 164.968 180.902 7.132 0.228 o
14 0 2 72.431 75.925 1.899 2.045 o
14 0 4 34.205 37.611 1.366 5.864 o
14 0 6 4.211 5.646 0.703 34.769 o
14 1 0 35.891 37.410 0.924 8.470 o
14 1 1 0.293 -0.010 0.442 91.709 o
14 1 2 1.341 1.567 0.482 76.447 o
14 1 3 19.601 21.287 1.075 11.617 o
14 1 4 29.649 29.635 1.246 7.503 o
14 1 5 0.672 0.482 0.583 52.734 o
14 1 6 81.331 89.336 2.140 1.586 o
14 2 0 36.706 36.807 0.874 8.745 o
14 2 1 2.502 2.120 0.321 164.852 o
14 2 2 35.811 36.687 1.537 4.973 o
14 2 3 5.116 5.264 0.352 120.247 o
14 2 4 60.288 64.011 1.808 2.607 o
14 2 5 1.950 2.180 0.633 44.310 o
14 3 0 8.963 8.679 0.362 87.126 o
14 3 1 64.394 68.371 1.547 2.754 o
14 3 2 2.897 3.154 0.311 169.943 o
14 3 3 15.333 15.541 0.482 39.091 o
14 3 4 6.265 5.595 0.693 34.783 o
14 3 5 4.494 4.862 0.693 35.787 o
14 4 0 2.403 2.562 0.281 211.177 o
14 4 1 9.970 9.805 0.512 50.325 o
14 4 2 0.587 0.633 0.271 242.458 o
14 4 3 16.517 17.007 0.502 34.644 o
14 4 4 4.589 4.782 0.332 137.303 o
14 5 0 2.381 2.592 0.301 185.616 o
14 5 1 78.888 83.399 5.073 0.562 o
14 5 2 30.204 31.262 0.663 13.486 o
14 5 3 2.741 3.094 0.301 181.738 o
14 6 0 1.945 2.371 0.281 215.226 o
14 6 1 2.213 2.863 0.281 211.483 o
14 6 2 17.462 19.760 0.512 30.956 o
15 1 0 29.621 31.644 0.583 14.767 o
15 1 1 8.541 8.740 0.332 99.307 o
15 1 2 21.682 24.049 0.663 19.469 o
15 2 0 2.834 3.144 0.261 234.457 o
15 2 1 17.702 19.830 0.512 30.617 o
15 2 2 9.111 9.071 0.784 25.867 o
15 3 0 1.047 1.185 0.231 328.690 o
15 3 1 7.885 7.022 0.342 104.414 o
15 4 0 4.828 4.239 0.954 19.245 o
;
_olex2_submission_special_instructions 'No special instructions were received'
loop_
_space_group_symop_id
_space_group_symop_operation_xyz
1 x,y,z
2 -x,y+1/2,-z+1/2
3 -x,-y,-z
4 x,-y-1/2,z-1/2
loop_
_atom_site_label
_atom_site_type_symbol
_atom_site_fract_x
_atom_site_fract_y
_atom_site_fract_z
_atom_site_U_iso_or_equiv
_atom_site_adp_type
_atom_site_occupancy
_atom_site_refinement_flags_posn
S(1) S 0.279710(7) 0.809644(7) 0.540398(6) 0.011895(15) Uani 1.000000 .
O(7) O 0.86121(3) 0.86927(3) 0.831058(18) 0.01464(3) Uani 1.000000 .
N(3) N 0.49274(3) 0.55009(2) 0.67239(2) 0.01281(3) Uani 1.000000 .
H(3a H 0.3742(9) 0.4951(10) 0.6842(6) 0.0271(15) Uani 1.000000 .
H(3b H 0.6125(10) 0.4907(9) 0.7120(8) 0.0293(15) Uani 1.000000 .
N(4) N 0.64755(2) 0.78217(2) 0.57683(2) 0.01124(2) Uani 1.000000 .
H(4) H 0.6482(9) 0.9022(10) 0.5360(8) 0.0255(15) Uani 1.000000 .
N(5) N 0.81868(2) 0.70305(2) 0.62611(2) 0.01138(2) Uani 1.000000 .
H(5) H 0.8802(10) 0.6375(9) 0.5562(8) 0.0242(14) Uani 1.000000 .
C(2) C 0.48613(3) 0.70520(2) 0.60132(2) 0.00937(2) Uani 1.000000 .
C(6) C 0.91839(3) 0.76000(3) 0.75006(2) 0.01115(3) Uani 1.000000 .
H(6) H 1.0503(11) 0.6952(9) 0.7702(9) 0.0318(18) Uani 1.000000 .
loop_
_atom_site_aniso_label
_atom_site_aniso_U_11
_atom_site_aniso_U_22
_atom_site_aniso_U_33
_atom_site_aniso_U_12
_atom_site_aniso_U_13
_atom_site_aniso_U_23
S(1) 0.00820(2) 0.01233(2) 0.01456(2) -0.000671(11) -0.000329(15) 0.003166(13)
O(7) 0.01372(6) 0.01759(6) 0.01229(5) 0.00397(4) 0.00079(4) -0.00278(4)
N(3) 0.01151(6) 0.01157(5) 0.01522(6) -0.00052(4) 0.00152(4) 0.00395(5)
H(3a 0.025(4) 0.031(4) 0.024(3) 0.006(3) -0.001(3) 0.004(3)
H(3b 0.023(3) 0.019(3) 0.046(4) 0.004(3) 0.005(3) 0.010(3)
N(4) 0.00834(5) 0.01153(5) 0.01366(6) -0.00067(4) 0.00097(4) 0.00254(4)
H(4) 0.015(3) 0.034(4) 0.026(3) -0.000(3) 0.001(3) -0.001(3)
N(5) 0.00896(5) 0.01304(5) 0.01211(5) 0.00115(4) 0.00143(4) -0.00124(4)
H(5) 0.020(3) 0.029(3) 0.024(4) -0.005(3) 0.005(3) -0.003(3)
C(2) 0.00868(5) 0.00980(5) 0.00944(5) -0.00059(4) 0.00077(4) 0.00070(4)
C(6) 0.00919(6) 0.01306(6) 0.01118(6) 0.00176(4) 0.00139(4) -0.00010(5)
H(6) 0.026(4) 0.031(4) 0.039(4) 0.006(3) 0.006(3) -0.004(3)
loop_
_atom_type_symbol
_atom_type_description
_atom_type_scat_dispersion_real
_atom_type_scat_dispersion_imag
_atom_type_scat_source
_atom_type_scat_dispersion_source
C C 0.00347 0.00161
'Clementi & Roetti, C., At. Data Nucl. Data Tables 1974, 14, (177-478); Clementi & Raimondi, J. Chem. Phys., 1963, 38, (2686-2689)'
'Henke, Gullikson and Davis, At. Data and Nucl. Data Tables, 1993, 54, 2'
H H 0.00000 0.00000
'Clementi & Roetti, C., At. Data Nucl. Data Tables 1974, 14, (177-478); Clementi & Raimondi, J. Chem. Phys., 1963, 38, (2686-2689)'
'Henke, Gullikson and Davis, At. Data and Nucl. Data Tables, 1993, 54, 2'
N N 0.00653 0.00323
'Clementi & Roetti, C., At. Data Nucl. Data Tables 1974, 14, (177-478); Clementi & Raimondi, J. Chem. Phys., 1963, 38, (2686-2689)'
'Henke, Gullikson and Davis, At. Data and Nucl. Data Tables, 1993, 54, 2'
O O 0.01158 0.00611
'Clementi & Roetti, C., At. Data Nucl. Data Tables 1974, 14, (177-478); Clementi & Raimondi, J. Chem. Phys., 1963, 38, (2686-2689)'
'Henke, Gullikson and Davis, At. Data and Nucl. Data Tables, 1993, 54, 2'
loop_
_geom_angle_atom_site_label_1
_geom_angle_atom_site_label_2
_geom_angle_atom_site_label_3
_geom_angle
_geom_angle_site_symmetry_1
_geom_angle_site_symmetry_3
_geom_angle_publ_flag
H(3b N(3) H(3a 120.6(6) . . ?
C(2) N(3) H(3a 116.9(4) . . ?
C(2) N(3) H(3b 122.5(4) . . ?
N(5) N(4) H(4) 117.6(4) . . ?
C(2) N(4) H(4) 120.6(4) . . ?
C(2) N(4) N(5) 121.219(17) . . ?
H(5) N(5) N(4) 116.9(4) . . ?
C(6) N(5) N(4) 119.923(17) . . ?
C(6) N(5) H(5) 120.2(4) . . ?
N(3) C(2) S(1) 121.804(15) . . ?
N(4) C(2) S(1) 119.327(14) . . ?
N(4) C(2) N(3) 118.870(18) . . ?
N(5) C(6) O(7) 124.188(18) . . ?
H(6) C(6) O(7) 124.2(4) . . ?
H(6) C(6) N(5) 111.6(4) . . ?
loop_
_geom_bond_atom_site_label_1
_geom_bond_atom_site_label_2
_geom_bond_distance
_geom_bond_site_symmetry_2
_geom_bond_publ_flag
S(1) C(2) 1.70436(19) . ?
O(7) C(6) 1.2256(3) . ?
N(3) H(3a 0.970(7) . ?
N(3) H(3b 0.994(7) . ?
N(3) C(2) 1.3243(2) . ?
N(4) H(4) 0.966(8) . ?
N(4) N(5) 1.3866(2) . ?
N(4) C(2) 1.3488(2) . ?
N(5) H(5) 0.978(7) . ?
N(5) C(6) 1.3523(3) . ?
C(6) H(6) 1.059(8) . ?
loop_
_refln_index_h
_refln_index_k
_refln_index_l
_refln_F_squared_meas
_refln_F_squared_sigma
-15 1 1 0.36 0.26
-15 1 2 64.21 1.09
-15 1 3 0.2 0.23
-15 1 4 15.02 0.67
-15 1 5 14.53 0.38
-15 1 6 0.24 0.22
-15 1 7 2.74 0.24
-15 1 8 1 0.22
-15 2 1 0.83 0.23
-15 2 2 10.83 0.35
-15 2 3 8.88 0.32
-15 2 4 22.6 0.47
-15 2 5 16.02 0.4
-15 2 6 4.99 0.32
-15 2 7 9.96 0.32
-15 2 8 2.2 0.89
-15 3 1 -0.04 0.37
-15 3 2 7.5 0.36
-15 3 3 9.25 0.33
-15 3 4 0.19 0.2
-15 3 5 16.93 0.4
-15 3 6 0.55 0.22
-15 3 7 43.23 0.78
-15 4 1 5.21 0.28
-15 4 2 0.82 0.23
-15 4 3 7.96 0.31
-15 4 4 1.59 0.22
-15 4 5 15.58 0.39
-14 0 2 -0.01 0.38
-14 0 4 7.15 0.38
-14 0 6 13.3 0.46
-14 0 8 98.37 2.24
-14 1 1 10.57 0.44
-14 1 2 18.2 0.47
-14 1 3 14.45 0.54
-14 1 4 142.84 1.95
-14 1 5 18.13 0.46
-14 1 6 35.44 0.72
-14 1 7 1.61 0.24
-14 1 8 7.68 0.32
-14 1 9 0.48 0.25
-14 1 10 7 0.7
-14 2 1 24.55 0.61
-14 2 2 19.43 0.48
-14 2 3 43.79 1.02
-14 2 4 3.13 0.28
-14 2 5 24.46 0.53
-14 2 6 37.91 0.66
-14 2 7 14.77 0.9
-14 2 8 9.49 0.34
-14 2 9 1.81 0.28
-14 2 10 28.86 1.21
-14 2 11 9.22 0.76
-14 3 1 49.79 0.81
-14 3 2 1.91 0.27
-14 3 3 9.52 0.58
-14 3 4 46.75 0.84
-14 3 5 7.55 0.33
-14 3 6 3.58 0.27
-14 3 7 25.93 0.52
-14 3 8 7.78 0.37
-14 3 9 33.31 0.69
-14 3 10 5.54 0.32
-14 4 1 64.64 1.06
-14 4 2 1.22 0.26
-14 4 3 63.83 1.2
-14 4 4 4.64 0.29
-14 4 5 57.41 0.87
-14 4 6 8.08 0.58
-14 4 7 36.17 0.62
-14 4 8 0.09 0.42
-14 4 9 0.13 0.23
-14 4 10 2.73 0.27
-14 5 1 62.27 1.26
-14 5 2 1.44 0.28
-14 5 3 6.72 0.32
-14 5 4 7.5 0.46
-14 5 5 2.98 0.32
-14 5 6 -0.14 0.37
-14 5 7 25.96 0.82
-14 5 8 3.96 0.3
-14 5 9 45.93 0.82
-14 6 1 0.53 0.35
-14 6 2 7.72 0.32
-14 6 3 76.11 1.57
-14 6 4 4.46 0.27
-14 6 5 66.07 2.03
-14 6 6 0.47 0.21
-14 6 7 -0.03 0.32
-14 7 1 33.6 1.43
-14 7 2 35.66 0.68
-14 7 3 5.79 0.28
-13 1 1 3.19 0.32
-13 1 2 21.47 0.7
-13 1 3 29.83 0.71
-13 1 4 1.62 0.29
-13 1 5 7.23 0.35
-13 1 6 8.33 0.36
-13 1 7 -0.06 0.4
-13 1 8 0.43 0.28
-13 1 9 0.19 0.26
-13 1 10 45.1 1.5
-13 1 11 0.57 0.48
-13 1 12 55.61 1.66
-13 1 13 0 0.3
-13 2 1 55.8 0.91
-13 2 2 139.5 3.39
-13 2 3 5.45 0.34
-13 2 4 2.78 0.3
-13 2 5 10.89 0.39
-13 2 6 2.88 0.28
-13 2 7 12.77 0.44
-13 2 8 20.97 0.58
-13 2 9 30.86 0.7
-13 2 10 19.51 1.04
-13 2 11 0.52 0.5
-13 2 12 28.87 0.61
-13 2 13 0.26 0.21
-13 3 1 23.9 0.99
-13 3 2 14.39 0.44
-13 3 3 53.35 0.87
-13 3 4 17.89 0.48
-13 3 5 127.35 2.17
-13 3 6 9.81 0.37
-13 3 7 -0.02 0.41
-13 3 8 1.6 0.36
-13 3 9 13.16 0.46
-13 3 10 36.66 0.63
-13 3 11 3.29 0.27
-13 3 12 0.5 0.22
-13 3 13 0.46 0.21
-13 4 1 15.59 0.45
-13 4 2 0.2 0.26
-13 4 3 5.88 0.48
-13 4 4 7.61 0.35
-13 4 5 20.13 0.9
-13 4 6 2.33 0.28
-13 4 7 101.27 1.67
-13 4 8 7.37 0.38
-13 4 9 2.25 0.23
-13 4 10 28.66 0.54
-13 4 11 1.21 0.22
-13 4 12 0.03 0.2
-13 5 1 42.15 1.06
-13 5 2 15.14 0.43
-13 5 3 75.22 1.58
-13 5 4 1.95 0.27
-13 5 5 48.93 0.79
-13 5 6 1.39 0.25
-13 5 7 3.24 0.24
-13 5 8 13.53 0.9
-13 5 9 6.01 0.27
-13 5 10 3.9 0.24
-13 5 11 -0.01 0.28
-13 6 1 24.62 0.78
-13 6 2 13.11 0.4
-13 6 3 0.74 0.24
-13 6 4 30.66 0.65
-13 6 5 18.01 0.44
-13 6 6 1.09 0.19
-13 6 7 31.66 0.91
-13 6 8 21.9 0.56
-13 6 9 0.01 0.18
-13 6 10 7.04 0.31
-13 7 1 11.45 0.36
-13 7 2 0.24 0.23
-13 7 3 27.59 0.84
-13 7 4 0.44 0.22
-13 7 5 0.86 0.18
-13 7 6 0.87 0.21
-13 7 7 0.4 0.18
-13 7 8 31.01 0.84
-13 7 9 0.2 0.2
-13 8 1 0.42 0.24
-13 8 2 1.81 0.23
-13 8 3 -0.06 0.36
-13 8 4 39.83 0.81
-13 8 5 0.18 0.17
-13 8 6 9.27 0.49
-13 8 7 11.14 0.3
-12 0 2 303.99 5.31
-12 0 4 5.16 0.32
-12 0 6 57.1 0.92
-12 0 8 187.99 3.88
-12 0 10 74.73 1.92
-12 0 12 23.72 1.01
-12 0 14 9.92 0.37
-12 1 1 0.56 0.19
-12 1 2 4.78 0.28
-12 1 3 7.61 0.26
-12 1 4 266 3.56
-12 1 5 2.08 0.2
-12 1 6 197.16 2.14
-12 1 7 16.09 0.35
-12 1 8 0.12 0.19
-12 1 9 12.62 0.38
-12 1 10 20.47 0.69
-12 1 11 0.77 0.25
-12 1 12 17.59 0.49
-12 1 13 8.61 0.67
-12 1 14 31.2 0.74
-12 1 15 0.43 0.18
-12 2 1 116.68 1.38
-12 2 2 87.23 1.12
-12 2 3 70.01 1.06
-12 2 4 1.67 0.22
-12 2 5 0.02 0.21
-12 2 6 6.51 0.27
-12 2 7 29.35 0.6
-12 2 8 237.81 3.83
-12 2 9 5.23 0.29
-12 2 10 12.08 0.66
-12 2 11 16.85 0.49
-12 2 12 11.15 0.4
-12 2 13 16.6 0.65
-12 2 14 0.14 0.22
-12 2 15 8.16 0.33
-12 3 1 1.73 0.23
-12 3 2 6.01 0.27
-12 3 3 1.61 0.22
-12 3 4 27.84 0.56
-12 3 5 19.9 0.44
-12 3 6 66.72 1.68
-12 3 7 28.76 0.8
-12 3 8 14.37 0.41
-12 3 9 34.19 0.63
-12 3 10 22.71 0.49
-12 3 11 65.89 2.38
-12 3 12 2.74 0.31
-12 3 13 14.6 1.19
-12 3 14 1.68 0.28
-12 4 1 78.69 1.16
-12 4 2 37.92 0.94
-12 4 3 139.46 2.07
-12 4 4 15.42 0.45
-12 4 5 18.81 0.48
-12 4 6 0.11 0.25
-12 4 7 9.27 0.31
-12 4 8 31.56 0.85
-12 4 9 26.5 0.61
-12 4 10 4.86 0.28
-12 4 11 6.64 0.33
-12 4 12 15.78 0.46
-12 4 13 83.66 3.06
-12 4 14 1.32 0.24
-12 5 1 21.48 0.57
-12 5 2 18.42 0.48
-12 5 3 18.96 0.48
-12 5 4 1.52 0.27
-12 5 5 12.05 0.34
-12 5 6 6.78 0.28
-12 5 7 0.7 0.22
-12 5 8 6.32 0.32
-12 5 9 77.75 1.11
-12 5 10 6.13 0.29
-12 5 11 71.17 3.42
-12 5 12 2.46 0.42
-12 5 13 5.79 0.29
-12 6 1 101.93 1.79
-12 6 2 3.09 0.28
-12 6 3 11.94 0.56
-12 6 4 0.68 0.19
-12 6 5 7.26 0.27
-12 6 6 50.56 1.27
-12 6 7 50.74 1.31
-12 6 8 5.01 0.27
-12 6 9 0.53 0.2
-12 6 10 14.55 0.39
-12 6 11 0.39 0.19
-12 6 12 -0.01 0.39
-12 7 1 9.35 0.44
-12 7 2 42.9 0.78
-12 7 3 8.24 0.28
-12 7 4 76.57 1.24
-12 7 5 0.01 0.18
-12 7 6 8.61 0.31
-12 7 7 3.46 0.24
-12 7 8 0.13 0.19
-12 7 9 26.46 0.5
-12 7 10 3.34 0.22
-12 7 11 29.35 0.51
-12 8 1 0.43 0.36
-12 8 2 8.52 0.28
-12 8 3 1.31 0.19
-12 8 4 6.03 0.3
-12 8 5 0.24 0.25
-12 8 6 106.78 2.51
-12 8 7 7.92 0.51
-12 8 8 20.67 0.53
-12 8 9 8.64 0.36
-12 8 10 18.77 0.79
-12 9 1 0.44 0.26
-12 9 2 29.41 1.08
-12 9 3 10.8 0.51
-12 9 4 62.01 1.05
-12 9 5 0.33 0.23
-12 9 6 27.76 1.15
-12 9 7 9.73 0.59
-12 9 8 2.71 0.54
-12 10 1 19.6 0.49
-12 10 2 1.29 0.26
-12 10 3 1.48 0.22
-12 10 4 15.7 1.13
-12 10 5 19.48 1
-11 1 1 42.24 0.63
-11 1 2 35.08 0.49
-11 1 3 0.18 0.18
-11 1 4 66.47 0.96
-11 1 5 53.52 0.7
-11 1 6 175.54 2.02
-11 1 7 -0.18 0.43
-11 1 8 106.56 1.17
-11 1 9 22.54 0.37
-11 1 10 37.28 1.65
-11 1 11 1.74 0.19
-11 1 12 7.94 0.27
-11 1 13 3.65 0.26
-11 1 14 0.93 0.18
-11 1 15 16.06 0.46
-11 1 16 0 0.21
-11 2 1 4.41 0.26
-11 2 2 101.54 1.2
-11 2 3 0.67 0.22
-11 2 4 157.09 1.92
-11 2 5 101.38 1.53
-11 2 6 2.66 0.23
-11 2 7 45.79 0.65
-11 2 8 5.05 0.24
-11 2 9 12.8 0.32
-11 2 10 46.24 1.5
-11 2 11 21.09 0.56
-11 2 12 1.77 0.28
-11 2 13 1.29 0.22
-11 2 14 12.25 0.36
-11 2 15 2.93 0.24
-11 2 16 4.12 0.24
-11 3 1 184.26 2.08
-11 3 2 5.07 0.26
-11 3 3 122.06 1.41
-11 3 4 10.43 0.32
-11 3 5 49.02 0.69
-11 3 6 93.85 1.32
-11 3 7 1.89 0.27
-11 3 8 4.06 0.23
-11 3 9 12.34 0.42
-11 3 10 8.49 0.34
-11 3 11 17.16 0.51
-11 3 12 1.57 0.26
-11 3 13 8.87 0.58
-11 3 14 0.28 0.2
-11 3 15 32.78 0.7
-11 3 16 0.3 0.22
-11 4 1 27.23 0.48
-11 4 2 2.56 0.34
-11 4 3 17.14 0.38
-11 4 4 7.9 0.28
-11 4 5 153.96 2.05
-11 4 6 0.63 0.16
-11 4 7 53.66 0.72
-11 4 8 0.22 0.22
-11 4 9 61.06 0.93
-11 4 10 18.29 0.49
-11 4 11 16.19 0.49
-11 4 12 10.67 0.4
-11 4 13 1.75 0.26
-11 4 14 0.04 0.22
-11 4 15 -0.04 0.31
-11 5 1 121.48 1.59
-11 5 2 4.93 0.26
-11 5 3 161.03 1.95
-11 5 4 8.02 0.24
-11 5 5 46.7 0.75
-11 5 6 0.82 0.17
-11 5 7 0.76 0.21
-11 5 8 40.95 1.02
-11 5 9 1.71 0.29
-11 5 10 4.66 0.28
-11 5 11 16.27 0.48
-11 5 12 13.69 0.44
-11 5 13 10.04 0.38
-11 5 14 0.23 0.25
-11 5 15 17.64 0.55
-11 6 1 10.61 0.48
-11 6 2 36.74 0.57
-11 6 3 0.19 0.15
-11 6 4 8.69 0.31
-11 6 5 21.5 0.48
-11 6 6 24.01 0.51
-11 6 7 123.06 1.66
-11 6 8 5.69 0.37
-11 6 9 6.34 0.29
-11 6 10 0.08 0.2
-11 6 11 0.18 0.2
-11 6 12 26.25 0.63
-11 6 13 29.93 0.62
-11 6 14 4.53 0.36
-11 7 1 20.29 0.42
-11 7 2 5.13 0.26
-11 7 3 33.72 0.96
-11 7 4 70.98 2.2
-11 7 5 30.13 0.72
-11 7 6 6.85 0.3
-11 7 7 9.34 0.33
-11 7 8 36.16 1.43
-11 7 9 -0.02 0.38
-11 7 10 41.79 0.68
-11 7 11 0.31 0.2
-11 7 12 0.77 0.21
-11 7 13 3.52 0.64
-11 8 1 1.86 0.32
-11 8 2 135.06 3.05
-11 8 3 0.67 0.25
-11 8 4 9.37 0.45
-11 8 5 9.35 0.42
-11 8 6 30.91 1.27
-11 8 7 0.08 0.26
-11 8 8 0.8 0.26
-11 8 9 3.01 0.3
-11 8 10 12.23 0.44
-11 8 11 1.05 0.26
-11 8 12 18.29 1.03
-11 9 1 0.6 0.26
-11 9 2 1.75 0.3
-11 9 3 0.35 0.24
-11 9 4 33.91 0.74
-11 9 5 0.28 0.26
-11 9 6 22.92 1.11
-11 9 7 1.45 0.26
-11 9 8 32.14 1.3
-11 9 9 0.17 0.24
-11 9 10 14.43 0.44
-11 10 1 0.22 0.26
-11 10 2 48.64 1.53
-11 10 3 1.24 0.23
-11 10 4 6.83 0.35
-11 10 5 0.16 0.23
-11 10 6 25.81 1.16
-11 10 7 14.57 0.43
-11 10 8 5.99 0.31
-11 11 1 1.72 0.26
-11 11 2 0.16 0.31
-11 11 3 44.6 2.05
-11 11 4 3.89 0.44
-11 11 5 -0.2 0.53
-10 0 2 24.99 0.54
-10 0 4 159.07 1.97
-10 0 6 197.95 2.45
-10 0 8 8.02 0.27
-10 0 10 25.02 0.56
-10 0 12 55.23 1.6
-10 0 14 38.27 1.15
-10 0 16 22.35 0.55
-10 1 1 6.17 0.24
-10 1 2 437.25 4.62
-10 1 3 0.71 0.18
-10 1 4 4.24 0.21
-10 1 5 6.09 0.23
-10 1 6 20.84 0.36
-10 1 7 20.12 0.32
-10 1 8 29.7 0.43
-10 1 9 18.99 0.45
-10 1 10 1.49 0.16
-10 1 11 9.77 0.28
-10 1 12 2.83 0.22
-10 1 13 1.42 0.2
-10 1 14 40.63 0.9
-10 1 15 1.16 0.41
-10 1 16 148.93 2.13
-10 1 17 0.02 0.22
-10 2 1 5.19 0.27
-10 2 2 1.41 0.22
-10 2 3 63.59 0.88
-10 2 4 61.96 0.86
-10 2 5 50.5 0.94
-10 2 6 161.82 2.16
-10 2 7 0.25 0.17
-10 2 8 3.18 0.21
-10 2 9 3.08 0.22
-10 2 10 16.08 0.42
-10 2 11 43.82 0.89
-10 2 12 58.47 1.48
-10 2 13 78.48 1.95
-10 2 14 17.31 0.43
-10 2 15 0.29 0.21
-10 2 16 8.7 0.31
-10 2 17 0.62 0.2
-10 3 1 18.17 0.4
-10 3 2 56.07 0.75
-10 3 3 82.55 1.08
-10 3 4 29.47 0.49
-10 3 5 2.52 0.19
-10 3 6 2.79 0.2
-10 3 7 118.75 1.35
-10 3 8 20.22 0.55
-10 3 9 241.07 2.76
-10 3 10 86.04 2.1
-10 3 11 9.09 0.75
-10 3 12 15.96 0.42
-10 3 13 2.49 0.24
-10 3 14 7.01 0.3
-10 3 15 0.3 0.22
-10 3 16 26.59 0.7
-10 3 17 9.98 0.7
-10 4 1 182.77 2.02
-10 4 2 35.54 0.73
-10 4 3 6.11 0.22
-10 4 4 2.16 0.19
-10 4 5 43.54 0.76
-10 4 6 5.84 0.22
-10 4 7 99.9 1.19
-10 4 8 0.07 0.18
-10 4 9 12.16 0.31
-10 4 10 0.22 0.19
-10 4 11 103.67 2.35
-10 4 12 0.22 0.24
-10 4 13 37.53 0.77
-10 4 14 47.12 0.88
-10 4 15 13.26 0.44
-10 4 16 1.53 0.21
-10 5 1 15.05 0.36
-10 5 2 3.01 0.2
-10 5 3 9.82 0.33
-10 5 4 55.95 0.7
-10 5 5 3.54 0.2
-10 5 6 4.04 0.21
-10 5 7 70.77 0.88
-10 5 8 -0.01 0.42
-10 5 9 130.81 1.51
-10 5 10 33.91 0.63
-10 5 11 80.62 2.06
-10 5 12 3.57 0.31
-10 5 13 7.12 0.35
-10 5 14 4.75 0.31
-10 5 15 5.15 0.26
-10 5 16 4.22 0.23
-10 6 1 29.62 0.51
-10 6 2 2.74 0.19
-10 6 3 0.5 0.16
-10 6 4 56.51 0.88
-10 6 5 32.86 0.76
-10 6 6 67.41 1.04
-10 6 7 53.26 1.03
-10 6 8 27.12 0.6
-10 6 9 0.22 0.28
-10 6 10 3 0.25
-10 6 11 48.14 0.78
-10 6 12 4.79 0.31
-10 6 13 30.09 0.71
-10 6 14 7.8 0.35
-10 6 15 2.33 0.24
-10 7 1 9.85 0.25
-10 7 2 105.96 1.63
-10 7 3 3.52 0.24
-10 7 4 83.52 1.66
-10 7 5 0.44 0.16
-10 7 6 2.94 0.21
-10 7 7 5.18 0.29
-10 7 8 -0.01 0.35
-10 7 9 18.09 0.79
-10 7 10 31.28 0.58
-10 7 11 70.71 1.07
-10 7 12 4.32 0.29
-10 7 13 4.43 0.29
-10 7 14 26.37 1.22
-10 8 1 0.94 0.27
-10 8 2 17.64 1.37
-10 8 3 24.68 0.58
-10 8 4 72.29 2.02
-10 8 5 0.39 0.3
-10 8 6 31.16 0.73
-10 8 7 53.6 1.01
-10 8 8 93.72 4.15
-10 8 9 7.55 0.38
-10 8 10 0.27 0.26
-10 8 11 7.44 0.37
-10 8 12 5.47 0.73
-10 8 13 -0.08 0.55
-10 9 1 5.07 0.31
-10 9 2 50.77 1.26
-10 9 3 1.88 0.28
-10 9 4 130.76 1.77
-10 9 5 110.93 1.79
-10 9 6 9.37 0.49
-10 9 7 1.53 0.28
-10 9 8 4.69 0.55
-10 9 9 1.1 0.26
-10 9 10 0.11 0.24
-10 9 11 -0.04 0.55
-10 9 12 1.67 0.27
-10 10 1 51.32 1.83
-10 10 2 4.35 0.29
-10 10 3 26.71 0.54
-10 10 4 51.14 2.83
-10 10 5 2.47 0.3
-10 10 6 32.67 0.71
-10 10 7 -0.16 0.33
-10 10 8 0.93 0.24
-10 10 9 24.54 0.62
-10 10 10 1.81 0.25
-10 11 1 0.05 0.26
-10 11 2 9.15 0.32
-10 11 3 3.19 0.3
-10 11 4 19.06 0.56
-10 11 5 35.16 1.11
-10 11 6 3.18 0.28
-10 11 7 22.3 1.17
-10 11 8 -0.1 0.55
-10 12 1 46.67 0.84
-10 12 2 0.96 0.24
-10 12 3 17.66 0.94
-10 12 4 7.86 0.33
-10 12 5 6.57 0.31
-9 1 1 79.19 1.14
-9 1 2 50.53 0.65
-9 1 3 161.92 1.6
-9 1 4 151.71 1.5
-9 1 5 6.37 0.21
-9 1 6 18.7 0.31
-9 1 7 0.87 0.15
-9 1 8 553.72 5.77
-9 1 9 5.26 0.2
-9 1 10 92.9 1.04
-9 1 11 51.05 0.64
-9 1 12 2.84 0.17
-9 1 13 0.02 0.17
-9 1 14 61.73 1.71
-9 1 15 0.7 0.18
-9 1 16 7.48 0.26
-9 1 17 7.72 0.27
-9 1 18 21.02 0.38
-9 2 1 31.98 0.52
-9 2 2 146.3 1.58
-9 2 3 5.42 0.26
-9 2 4 40.45 0.62
-9 2 5 355.4 4.2
-9 2 6 20.14 0.35
-9 2 7 147.54 1.84
-9 2 8 16.12 0.38
-9 2 9 9.72 0.32
-9 2 10 102.25 1.17
-9 2 11 8.94 0.35
-9 2 12 153.61 2.22
-9 2 13 1 0.24
-9 2 14 15.08 0.42
-9 2 15 12.51 0.6
-9 2 16 -0.3 0.4
-9 2 17 2.56 0.24
-9 2 18 0.04 0.19
-9 3 1 312.59 3.51
-9 3 2 15.18 0.38
-9 3 3 386.52 4.81
-9 3 4 73.75 1.02
-9 3 5 64.06 0.72
-9 3 6 0.93 0.17
-9 3 7 7.11 0.26
-9 3 8 111.03 1.4
-9 3 9 148.01 2.29
-9 3 10 40.66 0.76
-9 3 11 49.82 0.95
-9 3 12 8.66 0.34
-9 3 13 20.74 0.48
-9 3 14 56.72 1.71
-9 3 15 21.49 0.71
-9 3 16 -0.24 0.35
-9 3 17 2.08 0.22
-9 4 1 16.1 0.34
-9 4 2 7.3 0.24
-9 4 3 14.24 0.3
-9 4 4 4.28 0.21
-9 4 5 388.65 4.21
-9 4 6 23.5 0.38
-9 4 7 492.05 6.43
-9 4 8 21.09 0.42
-9 4 9 20.33 0.4
-9 4 10 25.79 0.48
-9 4 11 -0.02 0.4
-9 4 12 4.83 0.3
-9 4 13 4.19 0.28
-9 4 14 -0.22 0.38
-9 4 15 23.3 0.92
-9 4 16 0.34 0.2
-9 4 17 12.56 0.7
-9 5 1 111.62 1.57
-9 5 2 36.94 0.53
-9 5 3 573.59 6.62
-9 5 4 40.71 0.53
-9 5 5 128.15 1.56
-9 5 6 4.15 0.23
-9 5 7 46.61 0.64
-9 5 8 3.62 0.25
-9 5 9 99.36 1.27
-9 5 10 34.99 0.54
-9 5 11 22.82 0.5
-9 5 12 38.09 1.88
-9 5 13 55.84 1.12
-9 5 14 8.31 0.44
-9 5 15 6.17 0.28
-9 5 16 -0.01 0.34
-9 5 17 0.85 0.53
-9 6 1 211.16 3.16
-9 6 2 44.33 0.65
-9 6 3 49.69 0.68
-9 6 4 4.9 0.21
-9 6 5 256.01 3.08
-9 6 6 0.13 0.2
-9 6 7 99.89 1.21
-9 6 8 7.28 0.25
-9 6 9 88.6 1.47
-9 6 10 17.17 0.44
-9 6 11 0.39 0.22
-9 6 12 11.66 0.49
-9 6 13 4.47 0.31
-9 6 14 4.96 0.48
-9 6 15 0.95 0.3
-9 6 16 4.26 0.32
-9 7 1 4.5 0.26
-9 7 2 104.78 1.85
-9 7 3 282.67 3.96
-9 7 4 1.82 0.19
-9 7 5 53.3 0.96
-9 7 6 154.66 2.76
-9 7 7 10.49 0.29
-9 7 8 21.96 0.43
-9 7 9 34.27 0.7
-9 7 10 24.93 0.64
-9 7 11 2.44 0.24
-9 7 12 0.36 0.24
-9 7 13 12.52 0.43
-9 7 14 0.52 0.31
-9 7 15 0.84 0.59
-9 8 1 51.13 0.7
-9 8 2 55.51 0.9
-9 8 3 8.84 0.3
-9 8 4 0.64 0.19
-9 8 5 28.89 0.57
-9 8 6 23.34 0.51
-9 8 7 41.46 0.86
-9 8 8 1.57 0.41
-9 8 9 1.71 0.29
-9 8 10 50.16 1.54
-9 8 11 1.85 0.39
-9 8 12 28.64 1.27
-9 8 13 0.48 0.63
-9 8 14 14.66 0.96
-9 9 1 5.45 0.31
-9 9 2 47.69 0.99
-9 9 3 5.66 0.33
-9 9 4 4.32 0.36
-9 9 5 19.72 0.58
-9 9 6 82.99 1.4
-9 9 7 3.86 0.34
-9 9 8 20.54 1.09
-9 9 9 18.49 0.52
-9 9 10 60.84 1.07
-9 9 11 10.33 0.4
-9 9 12 0.36 0.25
-9 9 13 0.16 0.6
-9 10 1 13.59 0.41
-9 10 2 50.35 1.41
-9 10 3 62.81 1.42
-9 10 4 1.71 0.3
-9 10 5 -0.03 0.38
-9 10 6 1.29 0.28
-9 10 7 0.8 0.26
-9 10 8 19.03 0.52
-9 10 9 9.04 0.81
-9 10 10 22.78 0.96
-9 10 11 0.16 0.24
-9 10 12 52.37 0.88
-9 11 1 36.03 1.48
-9 11 2 29.67 0.57
-9 11 3 0.01 0.26
-9 11 4 0.41 0.26
-9 11 5 15.14 0.58
-9 11 6 1.31 0.26
-9 11 7 16.52 0.47
-9 11 8 21.6 0.53
-9 11 9 3.73 0.27
-9 11 10 36.91 0.69
-9 12 1 1.65 0.28
-9 12 2 6.02 0.35
-9 12 3 20.8 0.67
-9 12 4 0.95 0.25
-9 12 5 26.48 0.76
-9 12 6 14.67 0.43
-9 12 7 16.23 0.44
-9 12 8 0.13 0.27
-9 13 1 41.21 1.45
-9 13 2 5.26 0.67
-9 13 3 19.73 1.03
-8 0 2 176.06 2.43
-8 0 4 216.27 2.64
-8 0 6 840.96 12.4
-8 0 8 7.24 0.4
-8 0 10 17.37 0.55
-8 0 12 20.9 0.72
-8 0 14 18.8 0.65
-8 0 16 58.16 1.28
-8 0 18 1.12 0.37
-8 1 1 0.48 0.21
-8 1 2 303.3 3.4
-8 1 3 227.79 2.35
-8 1 4 128.36 1.4
-8 1 5 11.53 0.31
-8 1 6 159.95 1.86
-8 1 7 7.46 0.19
-8 1 8 4.38 0.2
-8 1 9 62.59 0.71
-8 1 10 107.38 1.43
-8 1 11 10.02 0.26
-8 1 12 56.38 0.96
-8 1 13 2.04 0.17
-8 1 14 44.86 1.09
-8 1 15 4.94 0.31
-8 1 16 -0.21 0.36
-8 1 17 7.83 0.28
-8 1 18 2.85 0.3
-8 2 1 323.51 4.18
-8 2 2 280.66 2.82
-8 2 3 3.61 0.21
-8 2 4 180.45 1.86
-8 2 5 18.38 0.37
-8 2 6 143.28 1.38
-8 2 7 20.63 0.34
-8 2 8 42.39 0.59
-8 2 9 126.58 1.55
-8 2 10 19.19 0.34
-8 2 11 9.69 0.24
-8 2 12 3.2 0.18
-8 2 13 6.39 0.23
-8 2 14 1.66 0.22
-8 2 15 26.37 0.48
-8 2 16 29.06 0.52
-8 2 17 0.69 0.2
-8 2 18 0.34 0.21
-8 3 1 74.43 1.18
-8 3 2 12.18 0.44
-8 3 3 296.76 3.26
-8 3 4 17.09 0.34
-8 3 5 372.79 4.25
-8 3 6 11.08 0.28
-8 3 7 72.79 0.87
-8 3 8 4.09 0.21
-8 3 9 44.59 0.7
-8 3 10 37.46 0.69
-8 3 11 0.83 0.21
-8 3 12 4.63 0.24
-8 3 13 9 0.28
-8 3 14 39.89 0.71
-8 3 15 -0.21 0.55
-8 3 16 0.01 0.3
-8 3 17 2.17 0.33
-8 3 18 -0.22 0.34
-8 4 1 335.62 3.93
-8 4 2 5.92 0.25
-8 4 3 89.43 1.03
-8 4 4 20.62 0.44
-8 4 5 8.51 0.24
-8 4 6 1.4 0.18
-8 4 7 110.24 1.96
-8 4 8 17.11 0.56
-8 4 9 63.06 1.19
-8 4 10 16.54 0.36
-8 4 11 44.01 0.78
-8 4 12 5.13 0.24
-8 4 13 19.28 0.77
-8 4 14 3.11 0.28
-8 4 15 9.65 0.67
-8 4 16 0.82 0.22
-8 4 17 16.49 1.16
-8 4 18 0.02 0.2
-8 5 1 218.21 2.58
-8 5 2 165.98 1.68
-8 5 3 188.92 2.24
-8 5 4 36.51 0.48
-8 5 5 248.29 3.18
-8 5 6 12.95 0.39
-8 5 7 129.04 1.82
-8 5 8 0.29 0.17
-8 5 9 12.32 0.32
-8 5 10 25.18 0.58
-8 5 11 0.44 0.18
-8 5 12 31.58 0.56
-8 5 13 1.33 0.23
-8 5 14 3.36 0.26
-8 5 15 -0.18 0.36
-8 5 16 13.33 0.52
-8 5 17 1.31 0.21
-8 6 1 511.93 6.01
-8 6 2 17.25 0.38
-8 6 3 23.48 0.38
-8 6 4 70.26 1.07
-8 6 5 34.17 0.5
-8 6 6 29.1 0.47
-8 6 7 0.53 0.18
-8 6 8 94.46 1.39
-8 6 9 30.54 0.55
-8 6 10 0.81 0.18
-8 6 11 58.11 0.88
-8 6 12 1.8 0.25
-8 6 13 8.64 0.54
-8 6 14 9.44 0.4
-8 6 15 13.72 0.99
-8 6 16 16.44 0.96
-8 6 17 32.63 1.4
-8 7 1 128.02 2.04
-8 7 2 79.31 1.27
-8 7 3 70.07 1.13
-8 7 4 44.98 0.96
-8 7 5 23.06 0.51
-8 7 6 1.39 0.24
-8 7 7 30.06 0.64
-8 7 8 83.61 1.36
-8 7 9 0.74 0.18
-8 7 10 0.46 0.18
-8 7 11 11.28 0.37
-8 7 12 102.3 2.36
-8 7 13 18.52 2.64
-8 7 14 26.49 1.95
-8 7 15 1.95 0.29
-8 7 16 0.08 0.69
-8 8 1 21.33 0.41
-8 8 2 2.89 0.22
-8 8 3 0.16 0.19
-8 8 4 222.71 3.04
-8 8 5 1.37 0.24
-8 8 6 65.63 0.99
-8 8 7 22.88 0.67
-8 8 8 36.14 0.65
-8 8 9 5.04 0.36
-8 8 10 39.18 0.81
-8 8 11 1.71 0.3
-8 8 12 3.13 0.65
-8 8 13 1.8 0.66
-8 8 14 26.94 1.21
-8 8 15 -0.44 0.65
-8 9 1 8.21 0.28
-8 9 2 87.56 1.61
-8 9 3 0.22 0.18
-8 9 4 6.21 0.3
-8 9 5 1.85 0.25
-8 9 6 6.99 0.31
-8 9 7 33.79 0.79
-8 9 8 35.95 0.78
-8 9 9 6.51 0.44
-8 9 10 7.7 0.38
-8 9 11 0.08 0.25
-8 9 12 40.66 0.78
-8 9 13 4.29 0.73
-8 10 1 4.67 0.32
-8 10 2 15.63 0.52
-8 10 3 32.96 0.64
-8 10 4 80.48 1.37
-8 10 5 0.52 0.3
-8 10 6 7.16 0.4
-8 10 7 3.57 0.34
-8 10 8 37.61 0.78
-8 10 9 15.66 0.48
-8 10 10 9.54 0.38
-8 10 11 26.87 0.6
-8 10 12 1.71 0.61
-8 11 1 3.3 0.34
-8 11 2 44.2 0.75
-8 11 3 0.02 0.28
-8 11 4 0.84 0.29
-8 11 5 31.62 1.32
-8 11 6 3.32 0.32
-8 11 7 83.27 1.37
-8 11 8 1.75 0.26
-8 11 9 0.41 0.22
-8 11 10 0.44 0.22
-8 11 11 7.91 0.79
-8 12 1 6.34 0.37
-8 12 2 2.11 0.26
-8 12 3 44.21 0.91
-8 12 4 0.45 0.62
-8 12 5 3.08 0.3
-8 12 6 9.99 0.49
-8 12 7 1.12 0.28
-8 12 8 0.59 0.21
-8 12 9 7.46 0.31
-8 13 1 0.2 0.25
-8 13 2 1.27 0.57
-8 13 3 30.05 0.63
-8 13 4 -0.09 0.32
-8 13 5 3.76 0.28
-8 13 6 1.41 0.25
-8 13 7 28.49 1.25
-7 1 1 58.7 0.78
-7 1 2 9.62 0.27
-7 1 3 6.21 0.24
-7 1 4 151.17 1.45
-7 1 5 0.8 0.15
-7 1 6 499.44 4.83
-7 1 7 12.22 0.29
-7 1 8 257.94 3.63
-7 1 9 4.54 0.2
-7 1 10 121.03 1.56
-7 1 11 8.94 0.24
-7 1 12 79.27 1
-7 1 13 37.71 0.62
-7 1 14 22.23 0.6
-7 1 15 6.07 0.27
-7 1 16 1.71 0.22
-7 1 17 1.96 0.28
-7 1 18 25.88 0.52
-7 1 19 1.03 0.2
-7 2 1 319.97 3.28
-7 2 2 27.63 0.44
-7 2 3 168.64 1.69
-7 2 4 25.26 0.59
-7 2 5 27.26 0.41
-7 2 6 247.57 2.7
-7 2 7 220.34 2.25
-7 2 8 230.29 2.47
-7 2 9 5.38 0.2
-7 2 10 133.48 1.62
-7 2 11 6.83 0.22
-7 2 12 81.23 1.13
-7 2 13 9.88 0.25
-7 2 14 2.89 0.19
-7 2 15 77.08 1.37
-7 2 16 19.24 0.41
-7 2 17 53.51 0.79
-7 2 18 0.2 0.19
-7 2 19 1.02 0.19
-7 3 1 289.86 3.12
-7 3 2 63.28 0.83
-7 3 3 237.34 2.51
-7 3 4 102.08 1.21
-7 3 5 80.14 1
-7 3 6 223.03 2.39
-7 3 7 48 0.71
-7 3 8 179.86 2.35
-7 3 9 2.62 0.2
-7 3 10 0.1 0.18
-7 3 11 177.65 2.59
-7 3 12 1.29 0.2
-7 3 13 180.61 2.42
-7 3 14 0.63 0.2
-7 3 15 15.26 0.46
-7 3 16 19.02 0.46
-7 3 17 -0.28 0.39
-7 3 18 -0.01 0.36
-7 3 19 13.78 1.31
-7 4 1 21.13 0.44
-7 4 2 38.98 0.62
-7 4 3 574.14 6.48
-7 4 4 1.58 0.34
-7 4 5 264.03 2.89
-7 4 6 13.67 0.38
-7 4 7 21.67 0.38
-7 4 8 2.86 0.18
-7 4 9 103.19 1.2
-7 4 10 2.69 0.21
-7 4 11 99.49 1.63
-7 4 12 66.94 1.07
-7 4 13 9.87 0.36
-7 4 14 19.39 0.48
-7 4 15 57.23 2.22
-7 4 16 8.46 0.39
-7 4 17 87.19 1.77
-7 4 18 3.97 0.31
-7 5 1 356.04 4.41
-7 5 2 16.32 0.39
-7 5 3 18.88 0.42
-7 5 4 85.58 0.98
-7 5 5 1.67 0.17
-7 5 6 28.57 0.47
-7 5 7 10.51 0.28
-7 5 8 2.32 0.19
-7 5 9 10.31 0.26
-7 5 10 12.1 0.43
-7 5 11 49.68 0.8
-7 5 12 0.76 0.18
-7 5 13 191.03 2.8
-7 5 14 15.58 0.5
-7 5 15 89.67 2.05
-7 5 16 0.28 0.22
-7 5 17 9.85 1.12
-7 5 18 -0.29 0.34
-7 6 1 22.85 0.38
-7 6 2 8.09 0.25
-7 6 3 187.95 1.95
-7 6 4 37.08 0.48
-7 6 5 67.36 1.23
-7 6 6 19.28 0.37
-7 6 7 20.26 0.38
-7 6 8 42.54 0.6
-7 6 9 24.96 0.54
-7 6 10 118.95 1.63
-7 6 11 130.9 2.08
-7 6 12 0.64 0.19
-7 6 13 -0.1 0.41
-7 6 14 11.94 0.42
-7 6 15 54.42 6.39
-7 6 16 1.69 0.62
-7 6 17 48.66 4.08
-7 7 1 81.58 1.13
-7 7 2 27.96 0.47
-7 7 3 11.3 0.33
-7 7 4 186.37 2.31
-7 7 5 8.42 0.52
-7 7 6 151.36 2.47
-7 7 7 1.63 0.24
-7 7 8 104.23 1.97
-7 7 9 -0.05 0.4
-7 7 10 -0.29 0.4
-7 7 11 0.12 0.25
-7 7 12 12.02 1.3
-7 7 13 83.48 6.89
-7 7 14 20.8 2.25
-7 7 15 61.45 1.86
-7 7 16 1.12 0.76
-7 7 17 10.12 0.97
-7 8 1 15.74 0.36
-7 8 2 95.4 1.78
-7 8 3 7.33 0.27
-7 8 4 104.04 2.65
-7 8 5 0.22 0.21
-7 8 6 46.83 0.97
-7 8 7 9.85 0.34
-7 8 8 4.92 0.28
-7 8 9 4.7 0.28
-7 8 10 200.89 3.32
-7 8 11 110.52 1.74
-7 8 12 53.14 1.64
-7 8 13 0.24 0.29
-7 8 14 0.54 0.7
-7 8 15 4.32 0.82
-7 8 16 0.61 0.7
-7 9 1 13.9 0.33
-7 9 2 30.57 0.57
-7 9 3 1.58 0.2
-7 9 4 21.07 0.99
-7 9 5 9.11 0.5
-7 9 6 148.28 2.5
-7 9 7 24.82 0.57
-7 9 8 230.98 3.28
-7 9 9 91.32 2.45
-7 9 10 5.2 0.34
-7 9 11 1.82 0.29
-7 9 15 3.34 0.74
-7 10 1 7.56 0.27
-7 10 2 1.03 0.19
-7 10 3 38.2 0.91
-7 10 4 84.45 2.42
-7 10 5 125.72 1.81
-7 10 6 11.76 0.46
-7 10 7 1.77 0.3
-7 10 8 34.83 0.75
-7 10 9 2.01 0.76
-7 10 10 84.8 2.63
-7 10 11 9.65 0.85
-7 10 12 4.08 0.7
-7 11 1 77.21 1.12
-7 11 2 4.66 0.31
-7 11 3 25.98 0.66
-7 11 4 1.53 0.31
-7 11 5 9.19 0.57
-7 11 6 33.4 0.74
-7 11 7 18.14 0.72
-7 11 8 70.79 1.2
-7 11 9 33.76 0.7
-7 11 10 1.32 0.62
-7 11 11 16.54 1.02
-7 11 12 3.6 0.68
-7 12 1 11.14 0.46
-7 12 2 5.24 0.36
-7 12 3 63.8 1.12
-7 12 4 30.81 0.7
-7 12 5 113.11 3.13
-7 12 6 11.81 0.46
-7 12 7 1.03 0.25
-7 12 8 0.35 0.58
-7 12 9 8.74 0.84
-7 12 10 19.74 1.08
-7 12 11 -0.61 0.55
-7 13 1 64.3 2.05
-7 13 2 50.87 1.64
-7 13 3 10.06 0.59
-7 13 4 0.08 0.24
-7 13 5 5.35 1
-7 13 6 1.42 0.25
-7 13 7 4.84 0.72
-7 13 8 4.62 0.7
-7 14 1 40.75 1.44
-7 14 2 19.23 1.05
-7 14 3 13.06 0.4
-7 14 4 1.23 0.65
-6 0 2 1403.04 19.4
-6 0 4 2244.14 36.61
-6 0 6 112.38 1.43
-6 0 8 391.55 5.17
-6 0 10 80.71 1.13
-6 0 12 15.36 0.57
-6 0 14 16.35 0.43
-6 0 16 41.04 0.85
-6 0 18 44.98 0.89
-6 1 1 30.45 0.45
-6 1 2 1413.38 15.32
-6 1 3 5.42 0.2
-6 1 4 29.41 0.41
-6 1 5 354.57 3.32
-6 1 6 620.93 5.94
-6 1 7 43.39 0.62
-6 1 8 313.29 3.41
-6 1 9 2.91 0.23
-6 1 10 96.74 1.27
-6 1 11 13.35 0.38
-6 1 12 105.02 1.19
-6 1 13 33.81 0.66
-6 1 14 24.86 0.46
-6 1 15 19.64 0.35
-6 1 16 0.55 0.29
-6 1 17 3.54 0.24
-6 1 18 0.7 0.22
-6 1 19 5.01 0.4
-6 2 1 144.41 1.42
-6 2 2 130.4 1.42
-6 2 3 1.63 0.16
-6 2 4 1471.38 16.74
-6 2 5 21.34 0.35
-6 2 6 284.96 2.72
-6 2 7 25.15 0.42
-6 2 8 18.38 0.36
-6 2 9 348.99 3.58
-6 2 10 29.08 0.43
-6 2 11 95.84 1.49
-6 2 12 8.93 0.24
-6 2 13 9.81 0.29
-6 2 14 87.98 1.28
-6 2 15 1.37 0.17
-6 2 16 2.72 0.24
-6 2 17 0.84 0.21
-6 2 18 10.64 0.61
-6 2 19 3.56 0.25
-6 3 1 170.21 2.25
-6 3 2 226.69 2.31
-6 3 3 210.98 2.17
-6 3 4 12.8 0.32
-6 3 5 519.8 5.2
-6 3 6 100.32 1.19
-6 3 7 317.1 3.86
-6 3 8 137.12 2.19
-6 3 9 72.82 1.59
-6 3 10 13.04 0.32
-6 3 11 20.15 0.52
-6 3 12 7.04 0.27
-6 3 13 102.72 1.65
-6 3 14 12.66 0.33
-6 3 15 25.39 0.56
-6 3 16 0.43 0.26
-6 3 17 4.62 0.43
-6 3 18 0.49 0.28
-6 3 19 6.27 0.34
-6 4 1 313.1 3.2
-6 4 2 66.02 0.85
-6 4 3 36.67 0.58
-6 4 4 342.33 3.58
-6 4 5 0.22 0.18
-6 4 6 1.11 0.19
-6 4 7 7.25 0.28
-6 4 8 0.51 0.15
-6 4 9 593.83 6.75
-6 4 10 4.58 0.28
-6 4 11 288.13 4.18
-6 4 12 11.79 0.32
-6 4 13 4.9 0.25
-6 4 14 22.55 0.55
-6 4 15 0.28 0.24
-6 4 16 12.66 1.08
-6 4 17 0.13 0.28
-6 4 18 1.51 0.28
-6 4 19 8.67 0.37
-6 5 1 311.26 3.26
-6 5 2 20.5 0.51
-6 5 3 177.8 1.92
-6 5 4 52.62 0.74
-6 5 5 198.57 2.21
-6 5 6 40.81 0.71
-6 5 7 551.49 6.35
-6 5 8 16.38 0.3
-6 5 9 85.6 1.38
-6 5 10 10.14 0.3
-6 5 11 68.18 1.14
-6 5 12 53.37 1.09
-6 5 13 47.75 0.68
-6 5 14 3.05 0.23
-6 5 15 25.19 0.93
-6 5 16 8.77 0.78
-6 5 17 8.44 0.71
-6 5 18 2.63 0.3
-6 6 1 12.7 0.34
-6 6 2 220.15 2.38
-6 6 3 177.21 2.07
-6 6 4 52.79 0.68
-6 6 5 37.57 0.6
-6 6 6 120.59 1.5
-6 6 7 120.64 1.37
-6 6 8 0.98 0.17
-6 6 9 134.01 2.08
-6 6 10 21.89 0.56
-6 6 11 110.8 2.03
-6 6 12 22.21 0.61
-6 6 13 61.53 1.31
-6 6 14 1.7 0.25
-6 6 15 27.09 2.51
-6 6 16 19.6 0.8
-6 6 17 0.44 0.46
-6 6 18 1.88 0.49
-6 7 1 73.11 1.09
-6 7 2 172.44 2.17
-6 7 3 5.94 0.26
-6 7 4 36.94 0.59
-6 7 5 50.51 0.78
-6 7 6 24.24 0.64
-6 7 7 188.67 2.32
-6 7 8 60.8 0.97
-6 7 9 41.37 0.93
-6 7 10 96 2.26
-6 7 11 21.9 0.99
-6 7 12 11.16 0.43
-6 7 13 20.1 1.15
-6 7 14 12.57 1.02
-6 7 15 1.51 0.78
-6 7 16 5.25 0.88
-6 7 17 0.66 0.78
-6 8 1 0.11 0.2
-6 8 2 297.28 3.37
-6 8 3 16.49 0.36
-6 8 4 337.39 4.26
-6 8 5 7.12 0.4
-6 8 6 163.81 2.04
-6 8 7 8.8 0.34
-6 8 8 0.46 0.19
-6 8 9 54.14 1.29
-6 8 10 16.52 0.41
-6 8 11 14.01 0.72
-6 8 12 12.49 0.98
-6 8 13 -0.12 0.69
-6 8 14 4.15 0.82
-6 8 15 5.13 0.86
-6 8 16 22.5 1.22
-6 9 1 16.31 0.36
-6 9 2 184.09 2.02
-6 9 3 2.28 0.21
-6 9 4 1.69 0.24
-6 9 5 5.54 0.29
-6 9 6 50.12 0.8
-6 9 7 2.1 0.25
-6 9 8 79.67 1.12
-6 9 9 17.88 0.46
-6 9 10 32.25 0.71
-6 9 11 9.43 0.82
-6 9 12 9.01 0.88
-6 9 13 2.35 0.75
-6 9 14 18.85 1.12
-6 9 15 6.31 0.84
-6 10 1 7.2 0.26
-6 10 2 78.62 1.12
-6 10 3 0.76 0.22
-6 10 4 169.7 2.19
-6 10 5 5.81 0.3
-6 10 6 192.26 2.48
-6 10 7 42.44 0.78
-6 10 8 21.44 0.58
-6 10 9 5.3 0.71
-6 10 10 4.21 0.69
-6 10 11 15.68 0.98
-6 10 12 1.85 0.62
-6 10 14 5.69 0.78
-6 11 1 38.69 0.6
-6 11 2 113.97 1.73
-6 11 3 100.44 1.37
-6 11 4 4.42 0.3
-6 11 5 0.41 0.49
-6 11 6 69.39 1.2
-6 11 7 18.54 0.54
-6 11 8 10.35 0.87
-6 11 9 16.54 1.02
-6 11 10 -0.12 0.58
-6 11 11 8.22 0.81
-6 11 12 9.27 0.82
-6 12 1 24.48 0.65
-6 12 2 63.99 1.13
-6 12 3 1.66 0.31
-6 12 4 27.36 0.66
-6 12 5 0.72 0.27
-6 12 6 4.8 0.33
-6 12 7 11.13 0.9
-6 12 8 -0.27 0.55
-6 12 9 13.28 0.95
-6 12 10 0.13 0.58
-6 12 11 21.36 1.11
-6 13 1 23.82 0.62
-6 13 2 37.77 0.76
-6 13 3 5.31 0.57
-6 13 4 0.11 0.25
-6 13 5 23.72 1.17
-6 13 6 8.83 0.84
-6 13 7 20.3 1.11
-6 13 8 0.06 0.54
-6 13 9 3.45 0.66
-6 14 1 1.03 0.54
-6 14 2 0.4 0.52
-6 14 3 1.93 0.63
-6 14 4 -0.32 0.55
-6 14 5 15.39 0.98
-6 14 6 -0.15 0.54
-5 1 1 5.72 0.24
-5 1 2 912.28 8.62
-5 1 3 110.68 1.07
-5 1 4 143.13 1.35
-5 1 5 34.1 0.44
-5 1 6 547.08 5.11
-5 1 7 147.65 1.49
-5 1 8 4.6 0.25
-5 1 9 0.32 0.2
-5 1 10 0.84 0.22
-5 1 11 52.66 0.77
-5 1 12 0.6 0.16
-5 1 13 25.37 0.6
-5 1 14 5.34 0.22
-5 1 15 7.54 0.24
-5 1 16 93.36 1.56
-5 1 17 0.18 0.22
-5 1 18 34.63 0.8
-5 1 19 0.34 0.22
-5 1 20 22.29 0.76
-5 2 1 120.1 1.23
-5 2 2 25.45 0.4
-5 2 3 1029.01 9.97
-5 2 4 2.11 0.16
-5 2 5 116.18 1.23
-5 2 6 380.84 3.92
-5 2 7 4.39 0.21
-5 2 8 4.99 0.21
-5 2 9 107.27 1.64
-5 2 10 100.32 1.24
-5 2 11 29.76 0.54
-5 2 12 15.37 0.3
-5 2 13 61.83 1.01
-5 2 14 44.53 0.94
-5 2 15 5.23 0.22
-5 2 16 13.8 0.36
-5 2 17 17.26 0.86
-5 2 18 2.54 0.26
-5 2 19 4.64 0.27
-5 2 20 52.69 1.66
-5 3 1 128.68 1.28
-5 3 2 283.5 3.17
-5 3 3 0.46 0.17
-5 3 4 87.26 1.09
-5 3 5 16.06 0.31
-5 3 6 0.34 0.26
-5 3 7 309.07 3.68
-5 3 8 0.01 0.15
-5 3 9 175.05 2.4
-5 3 10 33.19 0.48
-5 3 11 80.17 1.04
-5 3 12 15.64 0.34
-5 3 13 96.32 1.2
-5 3 14 14.59 0.38
-5 3 15 0.58 0.19
-5 3 16 11.44 0.37
-5 3 17 15.77 0.5
-5 3 18 33.35 2.22
-5 3 19 1.53 0.28
-5 4 1 873.65 9.49
-5 4 2 251.95 2.86
-5 4 3 600.74 6.22
-5 4 4 67.47 0.76
-5 4 5 246.28 2.38
-5 4 6 28.48 0.5
-5 4 7 152.31 1.94
-5 4 8 1.85 0.2
-5 4 9 15.07 0.32
-5 4 10 10.05 0.34
-5 4 11 15.51 0.36
-5 4 12 6.88 0.27
-5 4 13 24.92 0.44
-5 4 14 49.94 1.22
-5 4 15 78.84 3.72
-5 4 16 0.42 0.36
-5 4 17 7.68 0.59
-5 4 18 9.01 0.4
-5 4 19 2.39 0.3
-5 5 1 423.26 4
-5 5 2 43.44 0.63
-5 5 3 5.77 0.26
-5 5 4 260.1 2.68
-5 5 5 105.03 1.67
-5 5 6 45.36 0.69
-5 5 7 77.37 1.34
-5 5 8 0.14 0.17
-5 5 9 125.7 1.75
-5 5 10 0.28 0.17
-5 5 11 159.71 2.4
-5 5 12 3.16 0.22
-5 5 13 29.15 0.86
-5 5 14 61.98 2.73
-5 5 15 3.56 0.34
-5 5 16 0.69 0.29
-5 5 17 1.33 0.3
-5 5 18 0.24 0.28
-5 5 19 0.11 0.38
-5 6 1 130.57 1.38
-5 6 2 175.73 1.94
-5 6 3 149.15 1.74
-5 6 4 22.09 0.45
-5 6 5 409.06 5.05
-5 6 6 20.34 0.5
-5 6 7 -0.13 0.46
-5 6 8 118.43 1.86
-5 6 9 9.77 0.32
-5 6 10 53.33 1.33
-5 6 11 15.33 0.56
-5 6 12 56.39 2.06
-5 6 13 34.31 1.51
-5 6 14 2.99 0.34
-5 6 15 30.22 2.39
-5 6 16 2.89 0.32
-5 6 17 0.73 0.79
-5 6 18 11.08 1.03
-5 7 1 114.17 1.35
-5 7 2 299.49 3.34
-5 7 3 0.09 0.21
-5 7 4 161.96 2.73
-5 7 5 79.19 1.05
-5 7 6 88.86 1.19
-5 7 7 0.38 0.22
-5 7 8 113.68 1.61
-5 7 9 1.3 0.2
-5 7 10 41.96 0.82
-5 7 11 69.17 1.39
-5 7 12 5.54 0.51
-5 7 13 0.6 0.7
-5 7 14 9.63 0.96
-5 7 15 3.67 0.83
-5 7 16 33.82 1.46
-5 7 17 4.45 0.89
-5 8 1 57.36 0.86
-5 8 2 4.8 0.22
-5 8 3 0.38 0.18
-5 8 4 0.18 0.21
-5 8 5 -0.02 0.42
-5 8 6 12.98 0.38
-5 8 7 0.45 0.22
-5 8 8 324.2 4.14
-5 8 9 0.92 0.19
-5 8 10 8.82 0.35
-5 8 11 0.88 0.28
-5 8 12 41.76 1.51
-5 8 13 14.28 1.05
-5 8 14 22.57 1.24
-5 8 15 3.33 0.81
-5 8 16 0.13 0.74
-5 8 17 0.75 0.76
-5 9 1 6.66 0.22
-5 9 2 166.44 1.87
-5 9 3 30.47 0.57
-5 9 4 218.68 2.71
-5 9 5 20.4 0.56
-5 9 6 23.06 0.5
-5 9 7 0.67 0.26
-5 9 8 40.4 0.74
-5 9 9 22.12 0.67
-5 9 10 0.04 0.24
-5 9 11 16.77 0.53
-5 9 12 4.07 0.77
-5 9 13 0.02 0.68
-5 9 14 5.17 0.84
-5 9 15 3.83 0.81
-5 9 16 12.11 0.99
-5 10 1 7.48 0.25
-5 10 2 21.85 0.47
-5 10 3 33.13 0.76
-5 10 4 5.77 0.29
-5 10 5 59.72 0.9
-5 10 6 20.32 0.47
-5 10 7 38.83 0.92
-5 10 8 31.5 0.8
-5 10 9 2.61 0.61
-5 10 10 2.93 0.62
-5 10 11 0.53 0.56
-5 10 12 33.26 1.38
-5 10 13 29.33 1.31
-5 10 14 5.2 0.8
-5 10 15 10.13 0.9
-5 11 1 77.43 1.04
-5 11 2 13.32 0.43
-5 11 3 0.28 0.19
-5 11 4 33.43 0.62
-5 11 5 4.46 0.35
-5 11 6 2.49 0.34
-5 11 7 4.85 0.68
-5 11 8 2.2 0.62
-5 11 9 124.1 2.63
-5 11 10 2.05 0.59
-5 11 11 24.57 1.16
-5 11 12 3.96 0.68
-5 12 1 29.89 0.71
-5 12 2 1.57 0.23
-5 12 3 58.95 1.57
-5 12 4 30.85 0.7
-5 12 5 43.64 1.51
-5 12 6 19.44 1.08
-5 12 7 76.87 2.03
-5 12 8 1.29 0.59
-5 12 9 -0.33 0.52
-5 12 10 -0.09 0.54
-5 12 11 0.2 0.56
-5 12 12 0.52 0.58
-5 13 1 12.56 0.4
-5 13 2 0.06 0.2
-5 13 3 29.2 1.4
-5 13 4 17.59 1.03
-5 13 5 8.88 0.82
-5 13 6 1.05 0.57
-5 13 7 14.89 0.97
-5 13 8 0.96 0.57
-5 13 9 17.49 1.03
-5 13 10 0.5 0.57
-5 14 1 0.34 0.22
-5 14 2 2.85 0.61
-5 14 3 55.19 2.18
-5 14 4 6.61 0.76
-5 14 5 13.45 0.94
-5 14 6 3.78 0.67
-5 14 7 8.51 0.8
-5 14 8 15.56 0.98
-5 15 1 0.48 0.54
-4 0 2 1125.74 14.67
-4 0 4 604.17 8.88
-4 0 6 171.08 2.09
-4 0 8 133.06 2.53
-4 0 10 208.15 3.54
-4 0 12 226.16 4.04
-4 0 14 411.59 5.81
-4 0 16 90.13 1.36
-4 0 18 0.1 0.63
-4 0 20 0.68 0.73
-4 1 1 69.51 0.8
-4 1 2 0.44 0.19
-4 1 3 102.59 1.25
-4 1 4 33.27 0.69
-4 1 5 75.82 0.87
-4 1 6 3.16 0.18
-4 1 7 102.99 1.11
-4 1 8 483.54 5.35
-4 1 9 4.23 0.25
-4 1 10 184.94 2.07
-4 1 11 44.4 0.79
-4 1 12 647.02 7.28
-4 1 13 0.94 0.18
-4 1 14 16.65 0.42
-4 1 15 5.19 0.22
-4 1 16 65.04 1.07
-4 1 17 14.46 0.5
-4 1 18 66.86 1.16
-4 1 19 -0.24 0.39
-4 1 20 2.6 0.32
-4 2 1 733.58 6.96
-4 2 2 1015.23 10.26
-4 2 3 121.34 1.36
-4 2 4 195.45 1.99
-4 2 5 316.55 2.96
-4 2 6 30.81 0.44
-4 2 7 96.52 1.22
-4 2 8 221.16 2.43
-4 2 9 288.81 3.42
-4 2 10 105.81 1.57
-4 2 11 162.43 2.13
-4 2 12 162.54 1.92
-4 2 13 11.62 0.3
-4 2 14 142.31 2.11
-4 2 15 5 0.23
-4 2 16 79.56 2.31
-4 2 17 3.03 0.28
-4 2 18 0.11 0.24
-4 2 19 33.78 1.39
-4 2 20 2.92 0.31
-4 3 1 325.68 3.51
-4 3 2 535.78 5.37
-4 3 3 96.11 0.97
-4 3 4 449.19 4.84
-4 3 5 1142.33 11.48
-4 3 6 44.9 0.57
-4 3 7 526.88 5.59
-4 3 8 0.6 0.15
-4 3 9 146.39 2.07
-4 3 10 196.58 2.1
-4 3 11 52.6 0.79
-4 3 12 213.21 2.69
-4 3 13 23.94 0.46
-4 3 14 5.07 0.23
-4 3 15 66.48 1.31
-4 3 16 0.08 0.23
-4 3 17 25.43 1.17
-4 3 18 42.08 1.92
-4 3 19 6.37 0.32
-4 4 1 31.75 0.46
-4 4 2 0.27 0.16
-4 4 3 236.56 2.19
-4 4 4 120.54 1.57
-4 4 5 0.54 0.18
-4 4 6 151.39 1.68
-4 4 7 1062.1 12.92
-4 4 8 2.24 0.22
-4 4 9 417.34 6.44
-4 4 10 16.24 0.44
-4 4 11 80.41 1.31
-4 4 12 6.91 0.26
-4 4 13 20.96 0.6
-4 4 14 26.79 1.31
-4 4 15 0.65 0.24
-4 4 16 23.53 1.82
-4 4 17 -0.24 0.41
-4 4 18 18.37 0.9
-4 4 19 11.72 0.42
-4 5 1 5.21 0.19
-4 5 2 39.94 0.52
-4 5 3 599.82 5.6
-4 5 4 6.39 0.22
-4 5 5 780.08 8.41
-4 5 6 68.18 1.07
-4 5 7 282.75 2.91
-4 5 8 18.56 0.62
-4 5 9 1.71 0.21
-4 5 10 48.5 0.73
-4 5 11 107.67 1.87
-4 5 12 39.68 1.73
-4 5 13 55.84 2.3
-4 5 14 8.44 0.65
-4 5 15 3.08 0.37
-4 5 16 1.04 0.3
-4 5 17 60.93 4.97
-4 5 18 -0.48 0.38
-4 5 19 18.32 0.74
-4 6 1 107.35 1.11
-4 6 2 288.35 2.89
-4 6 3 65.62 0.82
-4 6 4 259.65 2.83
-4 6 5 12.05 0.38
-4 6 6 1.64 0.23
-4 6 7 311.05 4.76
-4 6 8 12.22 0.37
-4 6 9 403.34 5.91
-4 6 10 13.17 1.08
-4 6 11 23.8 0.77
-4 6 12 18.08 0.68
-4 6 13 0.1 0.39
-4 6 14 24.28 0.76
-4 6 15 18.31 1.15
-4 6 16 2.15 0.78
-4 6 17 0.7 0.8
-4 6 18 3.35 0.87
-4 7 1 79.89 1.03
-4 7 2 6.5 0.26
-4 7 3 224.61 2.35
-4 7 4 8.64 0.32
-4 7 5 126.58 2.29
-4 7 6 227.1 3
-4 7 7 121.09 1.31
-4 7 8 40.46 0.77
-4 7 9 5.95 0.28
-4 7 10 139.83 4.78
-4 7 11 35.89 1.29
-4 7 12 32.8 1.09
-4 7 13 10.69 0.58
-4 7 14 6.99 0.89
-4 7 15 3 0.83
-4 7 16 22.88 1.3
-4 7 17 35.5 1.49
-4 7 18 1.13 0.78
-4 8 1 0.6 0.16
-4 8 2 204.65 2.21
-4 8 3 63.12 0.77
-4 8 4 141.86 1.61
-4 8 5 91.58 1.17
-4 8 6 138.56 1.69
-4 8 7 55.7 0.78
-4 8 8 5.47 0.31
-4 8 9 32.44 0.61
-4 8 10 1.35 0.25
-4 8 11 0.26 0.42
-4 8 12 1.24 0.42
-4 8 13 1.82 0.78
-4 8 14 153.63 3.3
-4 8 15 7.91 0.95
-4 8 16 17.48 1.15
-4 8 17 0.66 0.76
-4 9 1 85.55 0.91
-4 9 2 8.41 0.26
-4 9 3 99.96 1.35
-4 9 4 50.1 0.93
-4 9 5 16.44 0.39
-4 9 6 87.42 1.17
-4 9 7 43.09 0.96
-4 9 8 0.48 0.3
-4 9 9 14.37 0.41
-4 9 10 222.18 3.55
-4 9 11 23.43 1.19
-4 9 12 76.27 2.03
-4 9 13 0.38 0.71
-4 9 14 1.38 0.77
-4 9 15 0.42 0.73
-4 9 16 10.02 0.95
-4 10 1 0.06 0.14
-4 10 2 184.96 2.13
-4 10 3 21.37 0.4
-4 10 4 56.52 0.8
-4 10 5 24.14 0.78
-4 10 6 -0.24 0.52
-4 10 7 46.36 1.01
-4 10 8 94.33 1.69
-4 10 9 19.32 0.62
-4 10 10 5.67 0.38
-4 10 11 1.34 0.3
-4 10 12 16.8 1.09
-4 10 13 6.46 0.86
-4 10 14 43.32 1.56
-4 10 15 -0.16 0.64
-4 11 1 123.53 1.96
-4 11 2 5.11 0.32
-4 11 3 59.02 1
-4 11 4 0.36 0.21
-4 11 5 94.78 2.41
-4 11 6 0.94 0.31
-4 11 7 2.39 0.34
-4 11 8 1.13 0.55
-4 11 9 2.91 0.61
-4 11 10 51.4 1.62
-4 11 11 9.35 0.4
-4 11 12 39.5 1.32
-4 11 13 5.86 0.8
-4 11 14 11.14 0.91
-4 12 1 2.14 0.18
-4 12 2 0.15 0.18
-4 12 3 0.2 0.22
-4 12 4 0.94 0.49
-4 12 5 18.66 1.35
-4 12 6 0.52 0.42
-4 12 7 91.33 2.22
-4 12 8 22.17 1.12
-4 12 9 36.9 1.41
-4 12 10 25.36 1.19
-4 12 11 0.52 0.53
-4 12 12 -0.52 0.5
-4 13 1 48.23 3.46
-4 13 2 22.98 1.53
-4 13 3 47.21 2.61
-4 13 4 26.69 1.1
-4 13 5 74.71 2.23
-4 13 6 6.58 0.35
-4 13 7 2.34 0.64
-4 13 8 6.1 0.76
-4 13 9 1.07 0.58
-4 13 10 -0.03 0.52
-4 13 11 18.21 1.03
-4 14 1 24.72 1.15
-4 14 2 18.52 0.67
-4 14 3 4.24 0.37
-4 14 4 5.78 0.34
-4 14 5 21.74 0.88
-4 14 6 10.54 0.86
-4 14 7 7.5 0.8
-4 14 8 9.26 0.84
-4 15 1 7.29 0.75
-4 15 2 0.07 0.5
-4 15 3 0.27 0.21
-4 15 4 0.92 0.22
-4 15 5 38.08 1.39
-3 1 1 344.91 3.19
-3 1 2 376.92 3.41
-3 1 3 1034.46 10.79
-3 1 4 1799.33 18.83
-3 1 5 5.63 0.18
-3 1 6 657.78 6.54
-3 1 7 60.11 0.73
-3 1 8 45.18 0.66
-3 1 9 223.12 2.71
-3 1 10 689.23 7.96
-3 1 11 8.12 0.32
-3 1 12 70.77 1
-3 1 13 9.18 0.26
-3 1 14 62.08 0.81
-3 1 15 7 0.28
-3 1 16 2.47 0.21
-3 1 17 23.49 0.62
-3 1 18 18.07 0.54
-3 1 19 0.38 0.31
-3 1 20 0.03 0.28
-3 2 1 1118.34 10.38
-3 2 2 0.36 0.16
-3 2 3 2216.93 24.2
-3 2 4 2.41 0.22
-3 2 5 158.49 1.55
-3 2 6 342.14 3.16
-3 2 7 27.57 0.43
-3 2 8 990.49 11.88
-3 2 9 0.36 0.2
-3 2 10 180.98 2.13
-3 2 11 15.28 0.36
-3 2 12 8.25 0.24
-3 2 13 95.31 1.45
-3 2 14 -0.04 0.5
-3 2 15 25.27 0.45
-3 2 16 0.48 0.2
-3 2 17 5.01 0.31
-3 2 18 1.4 0.29
-3 2 19 5.69 0.37
-3 2 20 -0.01 0.37
-3 3 1 426.97 3.87
-3 3 2 18.3 0.36
-3 3 3 419.29 4.81
-3 3 4 680.18 6.59
-3 3 5 745.37 6.77
-3 3 6 48.67 0.56
-3 3 7 366.67 3.89
-3 3 8 31.3 0.58
-3 3 9 201.17 2.77
-3 3 10 222.71 3.14
-3 3 11 62.75 1.11
-3 3 12 8.5 0.32
-3 3 13 32.78 0.57
-3 3 14 13.94 0.37
-3 3 15 1.6 0.22
-3 3 16 5.11 0.31
-3 3 17 12.54 0.89
-3 3 18 9.68 0.72
-3 3 19 7.83 0.31
-3 3 20 -0.37 0.59
-3 4 1 1442.22 14.38
-3 4 2 46.68 0.57
-3 4 3 2378.93 28.82
-3 4 4 21.06 0.32
-3 4 5 334.78 3.32
-3 4 6 0.14 0.18
-3 4 7 84.64 1.13
-3 4 8 132.23 1.72
-3 4 9 2.11 0.36
-3 4 10 1.25 0.22
-3 4 11 9.9 0.32
-3 4 12 21.27 0.61
-3 4 13 169.46 4.33
-3 4 14 0.82 0.26
-3 4 15 40.1 1.26
-3 4 16 0.24 0.31
-3 4 17 8.06 0.47
-3 4 18 0.84 0.3
-3 4 19 11.38 0.72
-3 5 1 343.38 3.38
-3 5 2 523.7 4.66
-3 5 3 112.83 1.39
-3 5 4 275.5 2.81
-3 5 5 1246.67 13.52
-3 5 6 135.03 1.72
-3 5 7 202.3 2.55
-3 5 8 1.38 0.18
-3 5 9 73.14 1.48
-3 5 10 16.16 0.53
-3 5 11 104.42 2.13
-3 5 12 3.96 0.29
-3 5 13 22.51 0.74
-3 5 14 0.68 0.25
-3 5 15 4.48 0.5
-3 5 16 84.92 6.98
-3 5 17 0.1 0.35
-3 5 18 8.52 0.45
-3 5 19 11.21 0.4
-3 6 1 2289.42 30.54
-3 6 2 0.28 0.15
-3 6 3 712.58 6.79
-3 6 4 16.59 0.36
-3 6 5 1.49 0.19
-3 6 6 77.44 1.28
-3 6 7 37.55 0.6
-3 6 8 127.95 2.03
-3 6 9 43.53 1.55
-3 6 10 35.25 0.9
-3 6 11 24.95 0.79
-3 6 12 15.63 0.64
-3 6 13 0.12 0.42
-3 6 14 1.52 0.43
-3 6 15 60.88 1.83
-3 6 16 6.13 0.92
-3 6 17 11.58 1.06
-3 6 18 5.93 0.89
-3 7 1 135.45 1.41
-3 7 2 171.68 1.75
-3 7 3 38.09 0.56
-3 7 4 309.55 3.33
-3 7 5 402.72 5.59
-3 7 6 144.36 2.49
-3 7 7 31.74 0.6
-3 7 8 23.67 0.65
-3 7 9 3.92 0.33
-3 7 10 2.45 0.37
-3 7 11 5.8 0.52
-3 7 12 136.56 2.38
-3 7 13 20.39 0.72
-3 7 14 17.7 1.16
-3 7 15 1.85 0.83
-3 7 16 12.91 1.06
-3 7 17 1.04 0.76
-3 7 18 4.25 0.82
-3 8 1 117.49 1.87
-3 8 2 0.2 0.15
-3 8 3 155.25 1.76
-3 8 4 2.23 0.23
-3 8 5 3.18 0.25
-3 8 6 143.17 1.54
-3 8 7 35.26 0.6
-3 8 8 300.34 4.18
-3 8 9 0.22 0.27
-3 8 10 96.94 2.25
-3 8 11 5.39 0.51
-3 8 12 7.58 0.55
-3 8 13 0.29 0.75
-3 8 14 0.44 0.77
-3 8 15 0.03 0.76
-3 8 16 0.92 0.78
-3 8 17 0.32 0.72
-3 9 1 1.26 0.19
-3 9 2 148.72 1.74
-3 9 3 4.7 0.21
-3 9 4 170.11 1.98
-3 9 5 44.87 0.72
-3 9 6 202.82 2.47
-3 9 7 6.17 0.27
-3 9 8 1.22 0.28
-3 9 9 24.98 0.55
-3 9 10 8.29 0.36
-3 9 11 7.78 0.37
-3 9 12 90.39 2.25
-3 9 13 2.66 0.82
-3 9 14 4.02 0.84
-3 9 15 0.36 0.72
-3 9 16 11.59 0.98
-3 10 1 41.49 0.49
-3 10 2 1.3 0.16
-3 10 3 0.22 0.17
-3 10 4 -0.09 0.43
-3 10 5 9.95 0.36
-3 10 6 10.65 0.36
-3 10 7 48.82 0.79
-3 10 8 256.78 3.2
-3 10 9 4.15 0.3
-3 10 10 57.36 1.09
-3 10 11 10.41 0.44
-3 10 12 3.13 0.78
-3 10 13 6 0.83
-3 10 14 3.82 0.78
-3 10 15 19.67 1.13
-3 11 1 1.72 0.15
-3 11 2 24.1 0.68
-3 11 3 2.46 0.24
-3 11 4 5.88 0.3
-3 11 5 35.31 0.72
-3 11 6 151.26 2.05
-3 11 7 49.92 0.8
-3 11 8 0.08 0.31
-3 11 9 0.69 0.32
-3 11 10 18.75 0.55
-3 11 11 94.99 1.53
-3 11 12 6.98 0.84
-3 11 13 1.21 0.68
-3 11 14 0.78 0.67
-3 12 1 62.36 1.36
-3 12 2 25.04 0.61
-3 12 3 67 1.53
-3 12 4 14.09 0.4
-3 12 5 14.64 1.11
-3 12 6 28.1 0.78
-3 12 7 2.86 0.34
-3 12 8 5.28 0.36
-3 12 9 2.86 0.64
-3 12 10 4.78 0.7
-3 12 11 5.73 0.34
-3 12 12 0.65 0.25
-3 12 13 21.61 1.15
-3 13 1 21.93 0.94
-3 13 2 4.83 0.34
-3 13 3 42.09 3.41
-3 13 4 0.62 0.27
-3 13 5 3.58 0.33
-3 13 6 19.22 1.1
-3 13 7 21.41 0.56
-3 13 8 0.44 0.34
-3 13 9 15.34 0.99
-3 13 10 0.36 0.54
-3 13 11 18.65 1.03
-3 14 1 56.86 1.52
-3 14 2 1 0.47
-3 14 3 44.66 1.39
-3 14 4 7.88 0.36
-3 14 5 0.91 0.24
-3 14 6 2.14 0.27
-3 14 7 0.89 0.24
-3 14 8 0.62 0.23
-3 14 9 1.04 0.59
-3 15 1 15.03 0.96
-3 15 2 1.53 0.57
-3 15 3 21.13 1.36
-3 15 4 17.33 0.63
-3 15 5 1.16 0.27
-3 15 6 0.4 0.55
-2 0 2 2808.29 30.28
-2 0 4 881.4 12.92
-2 0 6 3.32 0.23
-2 0 8 13.56 0.43
-2 0 10 1.12 0.31
-2 0 12 376.45 6.59
-2 0 14 93.95 1.36
-2 0 16 17.7 0.63
-2 0 18 21.21 1.16
-2 0 20 17.05 1.08
-2 1 1 1435.28 12.54
-2 1 2 1163.23 10.3
-2 1 3 87.45 0.9
-2 1 4 959.16 8.77
-2 1 5 27.38 0.44
-2 1 6 191.78 1.8
-2 1 7 55.81 0.69
-2 1 8 175.39 1.71
-2 1 9 49.33 0.69
-2 1 10 658.75 8
-2 1 11 8.77 0.32
-2 1 12 0.04 0.18
-2 1 13 1.82 0.23
-2 1 14 9.5 0.31
-2 1 15 46.65 0.97
-2 1 16 8.28 0.34
-2 1 17 4.33 0.37
-2 1 18 5.61 0.39
-2 1 19 1.45 0.51
-2 1 20 26.43 1.35
-2 2 1 1543.86 13.67
-2 2 2 827.3 7.32
-2 2 3 125.72 1.22
-2 2 4 0.85 0.15
-2 2 5 248.17 2.56
-2 2 6 276.4 2.82
-2 2 7 652.93 5.94
-2 2 8 32.57 0.47
-2 2 9 3.34 0.24
-2 2 10 1.03 0.22
-2 2 11 74.01 1.12
-2 2 12 71.63 1.25
-2 2 13 71.82 1.06
-2 2 14 68.32 1
-2 2 15 17.88 0.65
-2 2 16 24.01 0.66
-2 2 17 16.92 0.97
-2 2 18 2.33 0.34
-2 2 19 9.46 0.4
-2 2 20 22.07 0.83
-2 3 1 1383.38 12.81
-2 3 2 534.5 4.8
-2 3 3 683.39 6.56
-2 3 4 155.7 1.53
-2 3 5 0.14 0.12
-2 3 6 366.74 3.48
-2 3 7 45.65 0.55
-2 3 8 2.04 0.3
-2 3 9 0.05 0.19
-2 3 10 34.07 0.76
-2 3 11 166.75 2.84
-2 3 12 34.75 0.68
-2 3 13 34.79 0.62
-2 3 14 9.51 0.3
-2 3 15 98.2 1.52
-2 3 16 19.22 0.7
-2 3 17 85.22 2.07
-2 3 18 13.71 0.55
-2 3 19 2.07 0.39
-2 3 20 18.65 1.05
-2 4 1 5.82 0.27
-2 4 2 430.79 5.05
-2 4 3 137.47 1.6
-2 4 4 285.96 2.98
-2 4 5 495.25 4.56
-2 4 6 0.52 0.14
-2 4 7 186.31 2.06
-2 4 8 64.14 0.71
-2 4 9 224.54 3.79
-2 4 10 1.2 0.26
-2 4 11 146.94 1.91
-2 4 12 5.27 0.28
-2 4 13 20.63 0.78
-2 4 14 18.67 0.82
-2 4 15 4.54 0.33
-2 4 16 17.67 1.06
-2 4 17 43.3 3.56
-2 4 18 1.75 0.32
-2 4 19 63.09 1.8
-2 5 1 388.18 4.05
-2 5 2 6.88 0.21
-2 5 3 134.27 1.29
-2 5 4 66.41 0.74
-2 5 5 317.75 3.03
-2 5 6 0.96 0.15
-2 5 7 0.98 0.17
-2 5 8 291.44 3.44
-2 5 9 1.09 0.27
-2 5 10 1.78 0.33
-2 5 11 8.32 0.44
-2 5 12 0.71 0.25
-2 5 13 66.97 1.94
-2 5 14 6.45 0.43
-2 5 15 127.55 2.3
-2 5 16 2.43 0.49
-2 5 17 40.02 1.61
-2 5 18 12.75 0.45
-2 5 19 1.09 0.69
-2 6 1 86.89 0.91
-2 6 2 148.64 1.39
-2 6 3 215.15 1.99
-2 6 4 296.58 2.82
-2 6 5 1.09 0.16
-2 6 6 23.55 0.41
-2 6 7 148.74 2.12
-2 6 8 5.1 0.27
-2 6 9 106.39 2.81
-2 6 10 64.49 1.41
-2 6 11 17.5 0.7
-2 6 12 29.65 0.85
-2 6 13 65.69 1.35
-2 6 14 60.09 1.28
-2 6 15 18.68 1.17
-2 6 16 -0.14 0.76
-2 6 17 47.8 1.66
-2 6 18 0.6 0.72
-2 7 1 49.47 0.63
-2 7 2 60.76 0.72
-2 7 3 13.41 0.28
-2 7 4 343.53 3.62
-2 7 5 129.89 1.36
-2 7 6 179.05 2.02
-2 7 7 5 0.31
-2 7 8 181.4 3.61
-2 7 9 1.14 0.2
-2 7 10 90.05 1.65
-2 7 11 25.3 0.8
-2 7 12 30.28 1.02
-2 7 13 13.37 0.64
-2 7 14 44.75 1.6
-2 7 15 69.85 2
-2 7 16 -0.27 0.74
-2 7 17 5.88 0.87
-2 7 18 8.53 0.89
-2 8 1 6.2 0.24
-2 8 2 717.17 7.84
-2 8 3 22.01 0.44
-2 8 4 177.92 1.87
-2 8 5 1.53 0.21
-2 8 6 0.75 0.2
-2 8 7 26.42 0.46
-2 8 8 54.01 0.71
-2 8 9 0.17 0.2
-2 8 10 122.92 2.09
-2 8 11 25.29 0.84
-2 8 12 99.21 1.85
-2 8 13 7.29 0.95
-2 8 14 15.92 1.13
-2 8 15 22.01 1.24
-2 8 16 13.57 1.05
-2 8 17 0.99 0.69
-2 9 1 8.55 0.22
-2 9 2 1.23 0.16
-2 9 3 39.51 0.76
-2 9 4 78.67 0.92
-2 9 5 60.76 0.74
-2 9 6 138.93 1.52
-2 9 7 0.37 0.22
-2 9 8 191.49 2.1
-2 9 9 77.39 0.94
-2 9 10 26.61 0.49
-2 9 11 3.15 0.47
-2 9 12 52.08 1.71
-2 9 13 25.31 1.29
-2 9 14 7.54 0.93
-2 9 15 1.53 0.74
-2 9 16 5 0.8
-2 10 1 39.36 0.58
-2 10 2 92.51 1.25
-2 10 3 12.69 0.31
-2 10 4 59.63 1.33
-2 10 5 70.25 0.86
-2 10 6 30.71 0.55
-2 10 7 57.29 0.76
-2 10 8 1.91 0.21
-2 10 9 82.19 1
-2 10 10 19.36 0.42
-2 10 11 0.56 0.35
-2 10 12 12.81 1.02
-2 10 13 6.18 0.85
-2 10 14 30.33 1.35
-2 10 15 5.21 0.8
-2 11 1 22.89 0.47
-2 11 2 0.13 0.18
-2 11 3 246.23 2.85
-2 11 4 21.83 0.41
-2 11 5 41.48 0.84
-2 11 6 1.12 0.24
-2 11 7 0.45 0.23
-2 11 8 42.46 0.62
-2 11 9 16.64 0.45
-2 11 10 8.35 0.35
-2 11 11 25.35 0.72
-2 11 12 16.55 1.1
-2 11 13 47.01 1.63
-2 11 14 0.36 0.66
-2 12 1 16.27 0.35
-2 12 2 0.34 0.18
-2 12 3 6.99 0.3
-2 12 4 20.25 0.45
-2 12 5 85.48 1.5
-2 12 6 3.62 0.35
-2 12 7 39.89 0.88
-2 12 8 7.42 0.4
-2 12 9 84.32 2.43
-2 12 10 6.75 0.37
-2 12 11 6.22 0.36
-2 12 12 3.55 0.77
-2 12 13 0.78 0.68
-2 13 1 52.59 1.55
-2 13 2 5.49 0.3
-2 13 3 50.6 0.8
-2 13 4 9.41 0.37
-2 13 5 23.96 0.62
-2 13 6 40.06 0.83
-2 13 7 13.6 0.88
-2 13 8 1.25 0.3
-2 13 9 25.19 1.3
-2 13 10 2.39 0.27
-2 13 11 4.22 0.3
-2 14 1 10.4 0.42
-2 14 2 28.57 0.55
-2 14 3 2.56 0.3
-2 14 4 7.92 0.47
-2 14 5 12.19 0.71
-2 14 6 0.57 0.28
-2 14 7 43.36 1.56
-2 14 8 1.82 0.26
-2 14 9 6.21 0.31
-2 15 1 6.37 0.32
-2 15 2 0 0.18
-2 15 3 11.8 0.4
-2 15 4 13.42 1.09
-2 15 5 0.79 0.22
-2 15 6 17.54 1.42
-1 1 1 73.53 0.7
-1 1 3 2.21 0.17
-1 1 4 2034.99 19.31
-1 1 5 430.4 3.88
-1 1 6 175.5 1.81
-1 1 7 7.7 0.21
-1 1 8 157.3 1.51
-1 1 9 75.6 0.96
-1 1 10 314.27 3.16
-1 1 11 98.15 1.25
-1 1 12 173.62 2.19
-1 1 13 20.89 0.55
-1 1 14 15.73 0.54
-1 1 15 17.85 0.45
-1 1 16 145.46 2.18
-1 1 17 0.12 0.32
-1 1 18 3.86 0.45
-1 1 19 4.03 0.33
-1 1 20 16.8 0.47
-1 2 1 422.93 3.87
-1 2 2 2722.25 24.61
-1 2 3 18.18 0.34
-1 2 4 564.88 5.17
-1 2 5 947.79 9.09
-1 2 6 1570.87 16.28
-1 2 7 0.4 0.2
-1 2 8 615.74 6.16
-1 2 9 68.39 0.95
-1 2 10 0.02 0.17
-1 2 11 59.12 1.1
-1 2 12 54.3 0.88
-1 2 13 304.62 3.56
-1 2 14 10.3 0.31
-1 2 15 22.4 0.62
-1 2 16 1.13 0.25
-1 2 17 14.71 0.51
-1 2 18 52.56 1.8
-1 2 19 0.9 0.28
-1 2 20 9.56 0.42
-1 3 1 357.26 3.71
-1 3 2 31.04 0.45
-1 3 3 1552.95 15.2
-1 3 4 1492.17 15.87
-1 3 5 147.56 2.2
-1 3 6 238.04 2.25
-1 3 7 178.88 1.8
-1 3 8 402.63 4
-1 3 9 988.51 11.23
-1 3 10 1.21 0.2
-1 3 11 153.37 2.64
-1 3 12 29.27 0.57
-1 3 13 55.67 0.81
-1 3 14 29.81 0.5
-1 3 15 40.88 0.76
-1 3 16 11.86 0.36
-1 3 17 29.17 0.68
-1 3 18 0.53 0.38
-1 3 19 3.87 0.42
-1 3 20 -0.42 0.56
-1 4 1 2312.88 26.58
-1 4 2 555.48 5.58
-1 4 3 311.88 3.65
-1 4 4 419.46 4.94
-1 4 5 55.6 0.74
-1 4 6 30.57 0.41
-1 4 7 299.88 2.95
-1 4 8 114.09 1.29
-1 4 9 65.73 0.99
-1 4 10 4.42 0.24
-1 4 11 446.67 5.37
-1 4 12 1.04 0.21
-1 4 13 284.39 3.54
-1 4 14 1.14 0.22
-1 4 15 42.6 0.97
-1 4 16 20.54 0.48
-1 4 17 1.61 0.26
-1 4 18 29.83 2.33
-1 4 19 4.9 0.31
-1 5 1 105.52 1.05
-1 5 2 17.19 0.3
-1 5 3 94.87 1.01
-1 5 4 62.18 0.71
-1 5 5 107.23 1.17
-1 5 6 145.04 1.83
-1 5 7 551.26 6.33
-1 5 8 2.11 0.21
-1 5 9 472.2 7.54
-1 5 10 1.59 0.3
-1 5 11 221.73 4.04
-1 5 12 22.53 1.21
-1 5 13 5.17 0.5
-1 5 14 3.71 0.48
-1 5 15 130.85 2.31
-1 5 16 3.17 0.8
-1 5 17 19.25 1.16
-1 5 18 9.34 0.93
-1 6 1 190.61 1.73
-1 6 2 158.84 1.47
-1 6 3 420.56 3.8
-1 6 4 41.05 0.55
-1 6 5 33.21 0.54
-1 6 6 409.66 4.52
-1 6 7 73.85 1.01
-1 6 8 19.32 0.42
-1 6 9 6.88 0.33
-1 6 10 27.62 1.07
-1 6 11 259.15 4.65
-1 6 12 0.99 0.26
-1 6 13 305.43 5.37
-1 6 14 1.21 0.46
-1 6 15 0.07 0.74
-1 6 16 14.47 1.07
-1 6 17 0.78 0.72
-1 6 18 1.81 0.7
-1 7 1 48.93 0.58
-1 7 2 334.35 3.08
-1 7 3 6.83 0.24
-1 7 4 177.57 1.93
-1 7 5 0.74 0.19
-1 7 6 5.33 0.27
-1 7 7 169.08 2.1
-1 7 8 43.73 0.58
-1 7 9 104.02 1.45
-1 7 10 142.47 2.73
-1 7 11 136.75 3.18
-1 7 12 6.07 0.32
-1 7 13 1.16 0.66
-1 7 14 36.04 1.46
-1 7 15 71.21 2
-1 7 16 18.34 1.14
-1 7 17 2.73 0.74
-1 7 18 3.42 0.73
-1 8 1 6.03 0.24
-1 8 2 44.32 0.57
-1 8 3 10.5 0.33
-1 8 4 322.99 3.51
-1 8 5 0.58 0.19
-1 8 6 325.02 3.15
-1 8 7 151.26 1.61
-1 8 8 147.86 1.51
-1 8 9 6.88 0.3
-1 8 10 72.63 1.05
-1 8 11 46.61 1.31
-1 8 12 23.02 0.89
-1 8 13 40.02 1.53
-1 8 14 18.33 1.15
-1 8 15 1.32 0.74
-1 8 16 4.44 0.8
-1 8 17 0.89 0.67
-1 9 1 47.83 0.94
-1 9 2 124.94 1.64
-1 9 3 0.92 0.19
-1 9 4 422.92 4.33
-1 9 5 112.31 1.15
-1 9 6 19.76 0.35
-1 9 7 11.8 0.28
-1 9 8 129.51 1.47
-1 9 9 52.34 0.71
-1 9 10 55.31 0.73
-1 9 11 3.58 0.29
-1 9 12 0.12 0.29
-1 9 13 4.67 0.38
-1 9 14 54.69 1.76
-1 9 15 -0.52 0.65
-1 9 16 12.41 0.96
-1 10 1 159.84 2.16
-1 10 2 8.28 0.28
-1 10 3 46.54 0.64
-1 10 4 39.92 0.59
-1 10 5 4.52 0.22
-1 10 6 450.71 4.91
-1 10 7 28.3 0.43
-1 10 8 19.6 0.36
-1 10 9 0.21 0.19
-1 10 10 10.87 0.31
-1 10 11 28.94 0.7
-1 10 12 0.96 0.28
-1 10 13 1.71 0.28
-1 10 14 1.74 0.72
-1 10 15 2.2 0.7
-1 11 1 30.14 0.69
-1 11 2 62.71 1.19
-1 11 3 81.3 1.41
-1 11 4 163.97 2.83
-1 11 5 41.14 0.6
-1 11 6 0.3 0.17
-1 11 7 41.24 0.54
-1 11 8 11.03 0.28
-1 11 9 24.74 0.54
-1 11 10 18.37 0.83
-1 11 11 1.45 0.26
-1 11 12 0.03 0.41
-1 11 13 3.64 0.76
-1 11 14 1.97 0.68
-1 12 1 209.58 3.12
-1 12 2 2.15 0.21
-1 12 3 20.22 0.5
-1 12 4 1.78 0.2
-1 12 5 0.62 0.23
-1 12 6 52.7 2
-1 12 7 0.17 0.2
-1 12 8 11.97 0.7
-1 12 9 1.83 0.4
-1 12 10 0.88 0.25
-1 12 11 38.66 0.94
-1 12 12 0.83 0.45
-1 12 13 6.58 0.82
-1 13 1 15.38 0.73
-1 13 2 9.89 0.36
-1 13 3 18.55 0.45
-1 13 4 6.55 0.31
-1 13 5 34.97 0.88
-1 13 6 0.42 0.22
-1 13 7 13.08 0.5
-1 13 8 1.84 0.3
-1 13 9 26.05 0.74
-1 13 10 6.39 0.29
-1 13 11 10.31 0.39
-1 14 1 27.49 0.72
-1 14 2 12.72 0.37
-1 14 3 0.24 0.22
-1 14 4 24.52 0.63
-1 14 5 20.65 0.6
-1 14 6 2.88 0.24
-1 14 7 2.68 0.3
-1 14 8 1.97 0.28
-1 14 9 1.28 0.41
-1 15 1 1.62 0.26
-1 15 2 28.85 0.84
-1 15 3 6.55 0.39
-1 15 4 5.07 0.26
-1 15 5 2.21 0.21
-1 15 6 0.04 0.33
0 0 2 335.87 3.54
0 0 4 157.4 1.83
0 0 6 0.44 0.25
0 0 8 144.22 1.63
0 0 10 364.43 4.13
0 0 12 5.65 0.3
0 0 14 352.89 6.04
0 0 16 2.94 0.41
0 0 18 -0.23 0.61
0 0 20 0.88 0.62
0 1 1 58.94 0.6
0 1 2 4981.76 60.95
0 1 3 3442.46 36.05
0 1 4 4373.84 48.06
0 1 5 84.7 1.33
0 1 6 262.87 3.05
0 1 7 96.3 0.96
0 1 8 50.47 0.59
0 1 9 4.44 0.2
0 1 10 180.34 1.81
0 1 11 125.73 1.47
0 1 12 13.63 0.3
0 1 13 14.87 0.32
0 1 14 37.64 0.67
0 1 15 5.19 0.32
0 1 16 12.41 0.4
0 1 17 17.11 0.54
0 1 18 12.84 0.46
0 1 19 -0.13 0.61
0 1 20 18.38 0.48
0 2 1 124.11 1.5
0 2 2 1601.32 16
0 2 3 184.63 2.1
0 2 4 28.17 0.59
0 2 5 573.24 6.02
0 2 6 877.03 8.31
0 2 7 829.05 7.8
0 2 8 34.41 0.58
0 2 9 78.77 1.02
0 2 10 125.82 1.73
0 2 11 19.91 0.5
0 2 12 72.47 0.86
0 2 13 0.37 0.18
0 2 14 73.67 1.04
0 2 15 3.8 0.3
0 2 16 0.2 0.24
0 2 17 18.27 0.54
0 2 18 18.02 0.64
0 2 19 4.5 0.34
0 2 20 3.8 0.29
0 3 0 0.27 0.2
0 3 1 694.21 7.87
0 3 2 1388.64 12.88
0 3 3 1601.61 16.27
0 3 4 686.07 7.54
0 3 5 228.58 2.38
0 3 6 10.65 0.24
0 3 7 199.71 1.93
0 3 8 6.81 0.25
0 3 9 320.04 3.62
0 3 10 21.55 0.44
0 3 11 153.23 1.65
0 3 12 3.03 0.19
0 3 13 45.1 0.57
0 3 14 0.52 0.19
0 3 15 13.38 0.57
0 3 16 1.42 0.32
0 3 17 11.81 0.45
0 3 18 2.65 0.31
0 3 19 0.92 0.26
0 4 0 485.27 6.83
0 4 1 190.71 1.81
0 4 2 5.27 0.22
0 4 3 160.71 1.53
0 4 4 24.04 0.35
0 4 5 940.37 9.09
0 4 6 382.5 3.47
0 4 7 1394.05 15.47
0 4 8 68.66 0.93
0 4 9 85.41 1.16
0 4 10 0.19 0.19
0 4 11 38.8 0.58
0 4 12 0.83 0.17
0 4 13 3.92 0.21
0 4 14 2.9 0.19
0 4 15 10.8 0.31
0 4 16 5.51 0.38
0 4 17 17.19 0.51
0 4 18 17.32 0.49
0 4 19 8.42 0.36
0 5 0 0.21 0.21
0 5 1 629.92 5.73
0 5 2 343.76 3.33
0 5 3 584.39 5.42
0 5 4 308.94 2.96
0 5 5 268 2.66
0 5 6 28.16 0.49
0 5 7 104.62 1.23
0 5 8 0.51 0.19
0 5 9 500.06 6.79
0 5 10 126.21 1.65
0 5 11 71.57 1.26
0 5 12 5.44 0.29
0 5 13 15.14 0.58
0 5 14 33.71 0.82
0 5 15 29.34 1.84
0 5 16 0.45 0.71
0 6 0 102.17 1.21
0 6 1 193.17 1.75
0 6 2 332.48 2.98
0 6 3 72.06 0.86
0 6 4 0.32 0.19
0 6 5 1412.52 18.33
0 6 6 38.37 0.6
0 6 7 106.8 1.76
0 6 8 43.31 0.66
0 6 9 72.62 0.91
0 6 10 25.88 0.66
0 6 11 0.2 0.2
0 6 12 126.23 3.13
0 6 13 28.32 0.7
0 6 14 5 0.31
0 6 15 3.73 0.8
0 6 16 21.68 1.19
0 6 17 2.31 0.72
0 7 0 0.05 0.28
0 7 1 111.81 1.11
0 7 2 456.65 4.43
0 7 3 137.46 1.92
0 7 4 69.14 1.09
0 7 5 70.81 0.92
0 7 6 175.34 1.94
0 7 7 26.01 0.46
0 7 8 243.53 2.5
0 7 9 151.59 2.26
0 7 10 10.61 0.32
0 7 11 10.87 0.35
0 7 12 7.51 0.34
0 7 13 5.98 0.4
0 7 14 3.19 0.35
0 7 15 5.54 0.38
0 7 16 50.42 1.67
0 7 17 9.69 0.9
0 7 18 7.32 0.8
0 8 0 460.13 5.34
0 8 1 3.59 0.21
0 8 2 519.31 5.35
0 8 3 3.64 0.24
0 8 4 0.19 0.2
0 8 5 71.34 0.87
0 8 6 1.44 0.18
0 8 7 39.28 0.52
0 8 8 33.25 0.48
0 8 9 0.02 0.17
0 8 10 10.32 0.39
0 8 11 34.19 0.87
0 8 12 171.29 2.23
0 8 13 6.27 0.39
0 8 14 27.23 1.14
0 8 15 4.05 0.35
0 8 16 12.69 0.98
0 8 17 6.44 0.8
0 9 0 0.16 0.22
0 9 1 5.11 0.27
0 9 2 339.11 3.44
0 9 3 2.06 0.2
0 9 4 187.69 1.89
0 9 5 4.9 0.22
0 9 6 72.55 0.87
0 9 7 2.58 0.19
0 9 8 76.59 1.2
0 9 9 7.37 0.24
0 9 10 40.17 0.55
0 9 11 21.64 0.45
0 9 12 11.55 0.46
0 9 13 24.3 0.62
0 9 14 2.45 0.3
0 9 15 1.67 0.29
0 9 16 18.98 1.1
0 10 0 178.3 3.53
0 10 1 10.4 0.38
0 10 2 329.5 4.08
0 10 3 44.13 0.56
0 10 4 2.39 0.2
0 10 5 22.83 0.38
0 10 6 22.17 0.37
0 10 7 14.78 0.34
0 10 8 0.51 0.17
0 10 9 24.17 0.39
0 10 10 1.17 0.18
0 10 11 33.65 0.63
0 10 12 110.58 1.77
0 10 13 14.47 0.47
0 10 14 3.93 0.31
0 10 15 4.68 0.66
0 11 0 0.15 0.23
0 11 1 101.7 1.96
0 11 2 87.48 1.89
0 11 3 0.31 0.19
0 11 4 116.82 1.41
0 11 5 50.02 0.62
0 11 6 0.06 0.17
0 11 7 3.01 0.19
0 11 8 -0.01 0.48
0 11 9 68.84 0.92
0 11 10 36.48 0.59
0 11 11 10.27 0.46
0 11 12 3.12 0.3
0 11 13 22.28 0.55
0 11 14 0.17 0.23
0 12 0 171.66 4.66
0 12 1 0.56 0.22
0 12 2 11.7 0.31
0 12 3 19.43 0.5
0 12 4 62.06 1.36
0 12 5 33.51 0.67
0 12 6 8.06 0.3
0 12 7 124.79 2.17
0 12 8 2.55 0.24
0 12 9 11.28 0.33
0 12 10 6.06 0.31
0 12 11 14.43 0.56
0 12 12 1.34 0.48
0 12 13 0.89 0.22
0 13 0 0 0.53
0 13 1 10.28 0.36
0 13 2 24.92 0.68
0 13 3 80.3 1.68
0 13 4 1.99 0.25
0 13 5 14.82 0.41
0 13 6 10.56 0.35
0 13 7 2.13 0.21
0 13 8 14.39 0.34
0 13 9 6.04 0.25
0 13 10 0.11 0.21
0 13 11 27.64 0.5
0 14 0 0.46 0.56
0 14 1 10.24 0.44
0 14 2 0.14 0.21
0 14 3 2.73 0.25
0 14 4 27.44 0.54
0 14 5 17.98 0.68
0 14 6 2.1 0.23
0 14 7 49.71 2.25
0 14 8 0.99 0.2
0 14 9 7.1 0.28
0 15 0 0.14 0.53
0 15 1 0 0.23
0 15 2 -0.07 0.34
0 15 3 25.77 1
0 15 4 -0.13 0.33
0 15 5 8.59 0.56
0 15 6 19.68 1.18
1 1 1 45.01 0.53
1 1 2 53.03 0.58
1 1 3 675.36 6.97
1 1 4 786.88 7.39
1 1 5 124.26 1.44
1 1 6 6.68 0.24
1 1 7 7.42 0.24
1 1 8 114.07 1.21
1 1 9 62.54 0.77
1 1 10 14.55 0.34
1 1 11 2.01 0.18
1 1 12 450.67 4.66
1 1 13 16.65 0.32
1 1 14 195.46 1.99
1 1 15 1.22 0.17
1 1 16 16.58 0.52
1 1 17 3.05 0.34
1 1 18 6.75 0.38
1 1 19 6.9 0.36
1 1 20 11.82 0.39
1 2 0 217.75 2.28
1 2 1 3902.93 64.54
1 2 2 1051.86 10.27
1 2 3 114.24 1.35
1 2 4 20.17 0.35
1 2 5 34.53 0.53
1 2 6 209.44 1.89
1 2 7 65.11 1.03
1 2 8 157.54 2.13
1 2 9 286.56 3.45
1 2 10 239.65 2.92
1 2 11 205.39 2
1 2 12 1.18 0.18
1 2 13 2.64 0.19
1 2 14 2.19 0.18
1 2 15 49.73 0.61
1 2 16 128.46 2.76
1 2 17 3.02 0.4
1 2 18 34.29 0.72
1 2 19 4.2 0.32
1 3 0 8.6 0.27
1 3 1 490.18 4.82
1 3 2 280.06 3.36
1 3 3 128.56 1.56
1 3 4 242.16 2.68
1 3 5 1135.15 11.47
1 3 6 176.88 1.77
1 3 7 328.32 3.1
1 3 8 2.09 0.2
1 3 9 48.94 0.77
1 3 10 62.09 0.78
1 3 11 69.79 0.79
1 3 12 29.81 0.41
1 3 13 36.24 0.6
1 3 14 39.3 0.52
1 3 15 52.93 0.66
1 3 16 59.78 0.9
1 3 17 2.93 0.32
1 3 18 21.65 0.56
1 3 19 31.41 1.06
1 4 0 257.13 2.51
1 4 1 606.4 7.35
1 4 2 136.56 1.62
1 4 3 89.28 0.96
1 4 4 72.28 0.79
1 4 5 91.86 0.94
1 4 6 116.68 1.13
1 4 7 98.02 0.98
1 4 8 108.86 1.32
1 4 9 125.13 1.53
1 4 10 101.05 1.08
1 4 11 236.03 2.47
1 4 12 20.04 0.34
1 4 13 142.58 1.87
1 4 14 -0.05 0.44
1 4 15 18.31 0.38
1 4 16 9.63 0.35
1 4 17 4.34 0.34
1 4 18 1.3 0.28
1 4 19 3.58 0.77
1 5 0 76.98 0.79
1 5 1 264.54 2.73
1 5 2 233.26 2.15
1 5 3 717.2 6.94
1 5 4 53.85 0.82
1 5 5 130.91 1.44
1 5 6 111.87 1.37
1 5 7 406.3 4.22
1 5 8 5.53 0.26
1 5 9 227.18 2.74
1 5 10 74.77 1.49
1 5 11 4.51 0.25
1 5 12 5.75 0.27
1 5 13 10.93 0.32
1 5 14 0.03 0.19
1 5 15 7.94 0.62
1 5 16 2.52 0.64
1 6 0 10.81 0.25
1 6 1 304.08 3.31
1 6 2 54.56 0.66
1 6 3 131.15 1.68
1 6 4 457.11 4.99
1 6 5 0.54 0.2
1 6 6 81.83 1.16
1 6 7 4.52 0.26
1 6 8 192.29 2.42
1 6 9 8.49 0.29
1 6 10 4.42 0.25
1 6 11 201.66 3.31
1 6 12 1 0.21
1 6 13 40.03 0.98
1 6 14 21.35 0.44
1 6 15 10.41 0.45
1 6 16 7.14 0.38
1 6 17 14.68 0.94
1 7 0 599.52 5.94
1 7 1 28.67 0.45
1 7 2 88.32 0.97
1 7 3 217.45 2.4
1 7 4 140.4 1.83
1 7 5 9.16 0.32
1 7 6 11.52 0.35
1 7 7 79.76 1
1 7 8 115.02 1.17
1 7 9 126.99 1.73
1 7 10 108.17 1.57
1 7 11 0.03 0.2
1 7 12 40.49 0.86
1 7 13 0.55 0.2
1 7 14 76.94 1.89
1 7 15 2.72 0.34
1 7 16 0.25 0.27
1 7 17 20.28 0.51
1 8 0 282.07 2.96
1 8 1 3.25 0.2
1 8 2 0.6 0.19
1 8 3 3.22 0.24
1 8 4 401.02 5.65
1 8 5 36.54 0.5
1 8 6 382.7 4.24
1 8 7 1.14 0.19
1 8 8 50.11 0.62
1 8 9 15.07 0.32
1 8 10 13.84 0.36
1 8 11 0.78 0.21
1 8 12 32.46 0.56
1 8 13 9.73 0.43
1 8 14 91.45 1.98
1 8 15 5.31 0.36
1 8 16 15.28 0.46
1 8 17 0.95 0.61
1 9 0 304.11 3.4
1 9 1 1.07 0.16
1 9 2 106.23 1.08
1 9 3 92.96 0.97
1 9 4 14.31 0.31
1 9 5 11.3 0.28
1 9 6 0.12 0.17
1 9 7 7.15 0.24
1 9 8 7.8 0.28
1 9 9 9.72 0.27
1 9 10 129.97 1.41
1 9 11 45.84 0.77
1 9 12 33.59 1.22
1 9 13 2.06 0.26
1 9 14 53.13 0.98
1 9 15 0.79 0.41
1 9 16 13.33 0.42
1 10 0 21.4 0.44
1 10 1 24.32 0.42
1 10 2 9.99 0.26
1 10 3 102.61 1.26
1 10 4 132.64 1.36
1 10 5 1.81 0.19
1 10 6 16.08 0.37
1 10 7 39.73 0.6
1 10 8 103.79 1.27
1 10 9 46.06 0.71
1 10 10 16.29 0.47
1 10 11 10.53 0.37
1 10 12 8.24 0.6
1 10 13 17.45 0.42
1 10 14 5.56 0.33
1 10 15 4.66 0.31
1 11 0 6.21 0.22
1 11 1 63.11 0.99
1 11 2 0.86 0.17
1 11 3 55.08 0.76
1 11 4 16.66 0.32
1 11 5 119.23 1.32
1 11 6 0.5 0.18
1 11 7 84.81 1.06
1 11 8 1.82 0.2
1 11 9 6.27 0.29
1 11 10 7.4 0.34
1 11 11 6.84 0.31
1 11 12 13.11 0.62
1 11 13 3.76 0.3
1 11 14 31.91 0.7
1 12 0 39.96 0.86
1 12 1 53.56 1.09
1 12 2 2.15 0.25
1 12 3 78.72 1.27
1 12 4 5.21 0.21
1 12 5 0 0.16
1 12 6 -0.13 0.54
1 12 7 27.97 0.54
1 12 8 15.87 0.38
1 12 9 46.48 0.68
1 12 10 0.85 0.23
1 12 11 19.18 0.61
1 12 12 26.29 0.86
1 12 13 25.17 0.79
1 13 0 25.44 0.53
1 13 1 9.17 0.34
1 13 2 48.74 1.44
1 13 3 66.03 1.38
1 13 4 16.36 0.48
1 13 5 77.15 1.12
1 13 6 0.28 0.2
1 13 7 22.71 0.66
1 13 8 9.36 0.3
1 13 9 26.52 0.46
1 13 10 20.21 0.41
1 13 11 1.07 0.18
1 14 0 2.19 0.29
1 14 1 82.55 2.19
1 14 2 11.15 0.44
1 14 3 13.85 0.47
1 14 4 19.96 0.45
1 14 5 3.96 0.33
1 14 6 41.51 1.15
1 14 7 5.05 0.3
1 14 8 0 0.32
1 14 9 38.03 1.25
1 15 0 26.8 0.6
1 15 1 2.17 0.3
1 15 2 17.17 0.66
1 15 3 3.69 0.24
1 15 4 10.16 0.48
1 15 5 20.89 0.82
1 15 6 6.79 0.36
2 0 0 570.3 5.49
2 0 2 3782.17 75.31
2 0 4 0.74 0.29
2 0 6 11.5 0.4
2 0 8 187.54 2.41
2 0 10 1162.43 20.4
2 0 12 529.09 7.14
2 0 14 37.91 0.66
2 0 16 -0.05 0.41
2 0 18 -0.39 0.36
2 1 0 2351.93 22.03
2 1 1 296.55 3.5
2 1 2 1.51 0.16
2 1 3 16.68 0.34
2 1 4 966.61 9.88
2 1 5 89.91 1.14
2 1 6 1216.09 12.27
2 1 7 140.05 1.44
2 1 8 768.2 8.09
2 1 9 114.11 1.38
2 1 10 5.71 0.28
2 1 11 1.71 0.19
2 1 12 68.21 0.76
2 1 13 39.13 0.52
2 1 14 326.66 3.45
2 1 15 14.93 0.3
2 1 16 0.23 0.32
2 1 17 7.19 0.28
2 1 18 0.62 0.19
2 1 19 0.34 0.27
2 2 0 1716.05 18.3
2 2 1 23.05 0.4
2 2 2 397.2 4.43
2 2 3 2236.61 24.95
2 2 4 3.53 0.2
2 2 5 292.14 2.78
2 2 6 234.71 2.19
2 2 7 248.94 2.35
2 2 8 414.46 4.26
2 2 9 37.37 0.55
2 2 10 557.77 6.33
2 2 11 24.89 0.38
2 2 12 175.39 1.75
2 2 13 0.65 0.18
2 2 14 0.83 0.17
2 2 15 11.47 0.26
2 2 16 3.67 0.26
2 2 17 74.52 0.96
2 2 18 2.48 0.25
2 2 19 1.95 0.29
2 3 0 0.24 0.14
2 3 1 502.68 4.51
2 3 2 255.09 2.67
2 3 3 1723.86 19.54
2 3 4 99.02 1.15
2 3 5 14.31 0.29
2 3 6 43.63 0.56
2 3 7 780.86 7.74
2 3 8 740.3 7.74
2 3 9 141.26 1.72
2 3 10 9.87 0.27
2 3 11 54.42 0.64
2 3 12 41.59 0.53
2 3 13 172.56 2.12
2 3 14 41.97 0.86
2 3 15 15.27 0.3
2 3 16 0.09 0.2
2 3 17 0.25 0.19
2 3 18 0.07 0.21
2 3 19 7.73 0.36
2 4 0 78.54 0.97
2 4 1 16.65 0.31
2 4 2 0.24 0.14
2 4 3 1601.28 16.05
2 4 4 201.2 1.97
2 4 5 1968.28 23.48
2 4 6 13.02 0.29
2 4 7 150.13 1.65
2 4 8 74.61 0.97
2 4 9 4.68 0.24
2 4 10 0.52 0.15
2 4 11 5.19 0.22
2 4 12 56.43 0.98
2 4 13 25.68 0.54
2 4 14 3.96 0.2
2 4 15 31.63 0.8
2 4 16 14.25 0.44
2 4 17 67.75 1.09
2 4 18 1.23 0.28
2 5 0 90.87 0.89
2 5 1 1538.26 16.06
2 5 2 292.92 3.17
2 5 3 665.4 6.93
2 5 4 44.71 0.63
2 5 5 132.9 1.53
2 5 6 178.87 1.89
2 5 7 241.6 2.39
2 5 8 9.55 0.33
2 5 9 265.2 4.03
2 5 10 2.35 0.21
2 5 11 66.37 1.19
2 5 12 2.88 0.21
2 5 13 54.41 0.86
2 5 14 1.4 0.21
2 5 15 54.24 0.92
2 5 16 42.32 0.7
2 5 17 0.34 0.22
2 5 18 1.57 0.6
2 6 0 432.86 4.06
2 6 1 113.6 1.16
2 6 2 9.76 0.26
2 6 3 347.19 4.14
2 6 4 0.16 0.2
2 6 5 766.63 8.76
2 6 6 19.66 0.43
2 6 7 338.08 4.44
2 6 8 30.39 0.46
2 6 9 38.6 0.59
2 6 10 114.97 1.31
2 6 11 2.59 0.32
2 6 12 14.71 0.51
2 6 13 7.16 0.34
2 6 14 16.01 0.44
2 6 15 58.28 1.05
2 6 16 -0.1 0.7
2 6 17 39.44 1.43
2 6 18 0.45 0.51
2 7 0 12.15 0.3
2 7 1 589.65 5.93
2 7 2 320.01 4.19
2 7 3 147.84 1.85
2 7 4 228.89 3.18
2 7 5 34.17 0.59
2 7 6 200.59 2.11
2 7 7 31.68 0.5
2 7 8 47.01 0.66
2 7 9 106.4 1.22
2 7 10 65.57 1.13
2 7 11 1.19 0.25
2 7 12 78.79 0.98
2 7 13 9.94 0.47
2 7 14 16.24 0.63
2 7 15 28.04 0.55
2 7 16 10.04 0.39
2 7 17 0.58 0.55
2 8 0 220.02 2.22
2 8 1 55.32 0.78
2 8 2 20.15 0.62
2 8 3 44.59 0.93
2 8 4 115.61 1.51
2 8 5 153.93 1.94
2 8 6 46.86 0.7
2 8 7 4.45 0.22
2 8 8 60.9 0.8
2 8 9 13.93 0.31
2 8 10 162.59 1.85
2 8 11 10.37 0.3
2 8 12 123.81 2.18
2 8 13 0.16 0.24
2 8 14 5.18 0.3
2 8 15 0.86 0.23
2 8 16 7.79 0.36
2 9 0 2.1 0.16
2 9 1 10.89 0.25
2 9 2 335.12 3.34
2 9 3 123.23 1.63
2 9 4 55.84 0.68
2 9 5 4.75 0.22
2 9 6 151.87 1.94
2 9 7 6.34 0.24
2 9 8 197.3 2.38
2 9 9 10.86 0.32
2 9 10 28.61 0.49
2 9 11 5.7 0.32
2 9 12 99.06 1.39
2 9 13 1.86 0.25
2 9 14 6.1 0.3
2 9 15 3.19 0.25
2 9 16 7.75 0.52
2 10 0 233 2.47
2 10 1 96.05 1.04
2 10 2 0.33 0.17
2 10 3 0.76 0.18
2 10 4 20.34 0.36
2 10 5 43.76 0.58
2 10 6 21.45 0.39
2 10 7 7.81 0.24
2 10 8 53.11 0.95
2 10 9 0.15 0.16
2 10 10 164.61 2.46
2 10 11 1.54 0.25
2 10 12 19 0.91
2 10 13 1.28 0.23
2 10 14 5.63 0.27
2 10 15 18.15 0.68
2 11 0 6.13 0.27
2 11 1 63.54 0.93
2 11 2 27.03 0.45
2 11 3 5.75 0.22
2 11 4 0.64 0.17
2 11 5 16.98 0.33
2 11 6 103.8 1.43
2 11 7 17.19 0.38
2 11 8 51.53 0.76
2 11 9 0.84 0.23
2 11 10 9.64 0.32
2 11 11 53.63 1.39
2 11 12 18.75 0.43
2 11 13 2.71 0.23
2 11 14 10.72 0.86
2 12 0 0.01 0.17
2 12 1 33.47 0.73
2 12 2 4.72 0.29
2 12 3 50.43 0.66
2 12 4 9.62 0.26
2 12 5 106.79 1.33
2 12 6 2.76 0.25
2 12 7 3.06 0.25
2 12 8 2.76 0.24
2 12 9 2.96 0.26
2 12 10 50.84 0.72
2 12 11 0.8 0.21
2 12 12 9.93 0.31
2 13 0 -0.09 0.38
2 13 1 64.69 1.56
2 13 2 18.73 0.54
2 13 3 0.21 0.19
2 13 4 6.27 0.34
2 13 5 -0.14 0.39
2 13 6 11.62 0.33
2 13 7 29.79 0.56
2 13 8 0.3 0.2
2 13 9 6.62 0.26
2 13 10 8.77 0.27
2 13 11 4.35 0.27
2 14 0 3.32 0.3
2 14 1 22.33 0.71
2 14 2 2.13 0.24
2 14 3 46.79 1.03
2 14 4 1.77 0.24
2 14 5 18.16 0.56
2 14 6 11.81 0.5
2 14 7 6.47 0.24
2 14 8 3.72 0.2
2 14 9 0.75 0.56
2 15 0 15.52 1.15
2 15 1 13.71 0.36
2 15 2 3.05 0.24
2 15 3 2.67 0.31
2 15 4 32.52 2.03
2 15 5 0.27 0.19
2 15 6 0.69 0.19
3 1 0 2746.48 27.57
3 1 1 2101.91 21.87
3 1 2 228.56 2.39
3 1 3 88.4 1.12
3 1 4 61.79 0.79
3 1 5 96.92 1.13
3 1 6 917.81 9.76
3 1 7 142.92 1.77
3 1 8 462.76 4.86
3 1 9 20.7 0.44
3 1 10 135.17 1.45
3 1 11 3.67 0.2
3 1 12 0.57 0.17
3 1 13 0.46 0.16
3 1 14 129.12 1.63
3 1 15 48.56 0.95
3 1 16 1.62 0.22
3 1 17 0.2 0.2
3 1 18 0.65 0.21
3 1 19 0.26 0.18
3 2 0 291.67 2.79
3 2 1 145.01 1.51
3 2 2 477.03 5.06
3 2 3 22.76 0.47
3 2 4 1107.69 10.75
3 2 5 176.16 1.59
3 2 6 503.29 5.3
3 2 7 20.19 0.46
3 2 8 11.36 0.36
3 2 9 62.49 0.9
3 2 10 38.21 0.54
3 2 11 211.79 2.14
3 2 12 5.64 0.22
3 2 13 30.03 0.46
3 2 14 5.04 0.2
3 2 15 0.18 0.16
3 2 16 15.96 0.46
3 2 17 1.6 0.21
3 2 18 14.63 0.33
3 2 19 4.3 0.25
3 3 0 335.18 3.9
3 3 1 3029.19 39.74
3 3 2 29.49 0.52
3 3 3 367.99 3.48
3 3 4 56.22 0.67
3 3 5 128.78 1.27
3 3 6 482.19 4.5
3 3 7 161.38 1.73
3 3 8 20.14 0.38
3 3 9 69.55 1.16
3 3 10 14.64 0.31
3 3 11 8.72 0.25
3 3 12 2.29 0.19
3 3 13 28.4 0.64
3 3 14 28.64 0.71
3 3 15 59.89 1.48
3 3 16 0.8 0.2
3 3 17 21.29 0.41
3 3 18 12.52 0.31
3 4 0 91.84 0.94
3 4 1 488.43 4.57
3 4 2 14.19 0.29
3 4 3 131.8 1.69
3 4 4 0.28 0.18
3 4 5 247.01 2.6
3 4 6 29.3 0.5
3 4 7 0.45 0.18
3 4 8 13.72 0.37
3 4 9 195.97 2.33
3 4 10 24.42 0.41
3 4 11 330.26 4.27
3 4 12 23.77 0.49
3 4 13 30.85 0.8
3 4 14 8 0.28
3 4 15 7.22 0.37
3 4 16 0.36 0.23
3 4 17 0.94 0.23
3 4 18 0.38 0.24
3 5 0 22.06 0.35
3 5 1 1336.76 13.57
3 5 2 11.89 0.27
3 5 3 613.02 5.82
3 5 4 36.27 0.56
3 5 5 80.09 1.26
3 5 6 24.67 0.43
3 5 7 32.22 0.5
3 5 8 284.52 3.29
3 5 9 169.22 1.89
3 5 10 6.49 0.24
3 5 11 3.04 0.2
3 5 12 55.79 1.05
3 5 13 39.84 0.61
3 5 14 4.36 0.33
3 5 15 29.9 0.59
3 5 16 8.84 0.68
3 5 17 17.9 0.67
3 5 18 11.4 0.57
3 6 0 17.88 0.33
3 6 1 3.42 0.18
3 6 2 89.58 0.95
3 6 3 211.61 2.65
3 6 4 256.13 3.2
3 6 5 13.35 0.37
3 6 6 174.85 2.47
3 6 7 66.33 1.08
3 6 8 12.9 0.31
3 6 9 64.2 0.81
3 6 10 0.78 0.25
3 6 11 21.31 0.42
3 6 12 13.63 0.39
3 6 13 112.65 1.61
3 6 14 36.44 1.21
3 6 15 3.38 0.32
3 6 16 12.26 0.43
3 6 17 3.19 0.27
3 7 0 49.54 0.63
3 7 1 501.29 5.36
3 7 2 666.35 7.8
3 7 3 68.56 1.23
3 7 4 45.43 0.8
3 7 5 7.34 0.3
3 7 6 51.65 0.7
3 7 7 4.66 0.22
3 7 8 136.52 1.39
3 7 9 68.07 0.86
3 7 10 100.37 1.18
3 7 11 4.46 0.24
3 7 12 74.95 1.02
3 7 13 6.96 0.44
3 7 14 0.91 0.38
3 7 15 3.83 0.5
3 7 16 13.9 0.44
3 7 17 0.35 0.22
3 8 0 14.88 0.33
3 8 1 0.1 0.16
3 8 2 241.72 3.62
3 8 3 88.85 1.11
3 8 4 385.66 4.35
3 8 5 17.45 0.33
3 8 6 254.54 2.89
3 8 7 29.96 0.45
3 8 8 27.96 0.46
3 8 9 2.78 0.23
3 8 10 13.04 0.34
3 8 11 4.12 0.24
3 8 12 3.54 0.3
3 8 13 1.03 0.26
3 8 14 8.84 0.34
3 8 15 3.14 0.25
3 8 16 37.98 0.72
3 9 0 44.46 0.51
3 9 1 47.37 0.56
3 9 2 358.51 3.92
3 9 3 4.52 0.21
3 9 4 2.29 0.19
3 9 5 70.86 0.83
3 9 6 76.36 1.03
3 9 7 42.26 0.66
3 9 8 164.39 1.83
3 9 9 15.64 0.32
3 9 10 21.11 0.42
3 9 11 0.05 0.24
3 9 12 39.48 0.7
3 9 13 15.25 0.41
3 9 14 2.8 0.27
3 9 15 3.15 0.23
3 10 0 32.74 0.5
3 10 1 25.38 0.4
3 10 2 37.35 0.5
3 10 3 21.61 0.37
3 10 4 166.71 1.88
3 10 5 9.85 0.26
3 10 6 221.21 2.67
3 10 7 56.74 0.9
3 10 8 1.47 0.18
3 10 9 54.77 1.29
3 10 10 11.36 0.38
3 10 11 12 0.38
3 10 12 6.99 0.31
3 10 13 8.64 0.46
3 10 14 3.56 0.24
3 11 0 8.84 0.22
3 11 1 3.16 0.19
3 11 2 62.63 0.73
3 11 3 212.73 2.39
3 11 4 1.25 0.18
3 11 5 30.35 0.45
3 11 6 20.93 0.56
3 11 7 34.35 0.86
3 11 8 74.66 0.99
3 11 9 26.97 0.65
3 11 10 4.98 0.26
3 11 11 5.43 0.32
3 11 12 3.97 0.25
3 11 13 46.14 0.7
3 12 0 36.28 0.49
3 12 1 44.12 0.74
3 12 2 4.84 0.19
3 12 3 2.24 0.18
3 12 4 75.24 2.05
3 12 5 0 0.42
3 12 6 0.54 0.21
3 12 7 6.08 0.42
3 12 8 1.21 0.22
3 12 9 60.66 0.82
3 12 10 0.1 0.19
3 12 11 41.87 0.67
3 12 12 -0.03 0.31
3 13 0 4.46 0.28
3 13 1 43.92 1.17
3 13 2 9.76 0.51
3 13 3 24.43 0.7
3 13 4 2.86 0.23
3 13 5 13.16 0.44
3 13 6 -0.1 0.39
3 13 7 62.67 0.99
3 13 8 2.78 0.22
3 13 9 1.42 0.19
3 13 10 12.3 0.36
3 14 0 4.3 0.27
3 14 1 1.91 0.24
3 14 2 5.04 0.27
3 14 3 0.24 0.18
3 14 4 1.09 0.18
3 14 5 0.36 0.17
3 14 6 4.2 0.3
3 14 7 1.41 0.18
3 14 8 9.38 0.26
3 15 0 13.65 0.92
3 15 1 21.39 0.44
3 15 2 4.18 0.25
3 15 3 3.15 0.23
3 15 4 0.18 0.3
3 15 5 0.55 0.24
4 0 0 128.82 2.88
4 0 2 199.61 2.7
4 0 4 58.27 0.86
4 0 6 38.11 0.77
4 0 8 319.79 5.66
4 0 10 358.27 4.74
4 0 12 160.38 1.96
4 0 14 4.68 0.28
4 0 16 7.14 0.52
4 0 18 10.3 0.4
4 1 0 431.69 4.15
4 1 1 5.29 0.24
4 1 2 1470.25 15.51
4 1 3 10.13 0.27
4 1 4 2.43 0.21
4 1 5 0.42 0.22
4 1 6 703.62 7.49
4 1 7 84.63 1.31
4 1 8 135.86 2.14
4 1 9 26.67 0.74
4 1 10 2.4 0.18
4 1 11 33.86 0.54
4 1 12 79.51 1.38
4 1 13 15.91 0.31
4 1 14 10.23 0.26
4 1 15 0.49 0.22
4 1 16 131.52 1.61
4 1 17 4.68 0.25
4 1 18 13.45 0.32
4 2 0 1.46 0.17
4 2 1 116.83 1.91
4 2 2 79.22 1.03
4 2 3 492.63 4.99
4 2 4 1.86 0.17
4 2 5 699.48 6.54
4 2 6 52.85 0.86
4 2 7 0.36 0.19
4 2 8 152.26 2.26
4 2 9 32.78 0.6
4 2 10 120.1 1.52
4 2 11 1.97 0.25
4 2 12 161.54 1.67
4 2 13 160.97 2.22
4 2 14 0.49 0.16
4 2 15 32.6 0.55
4 2 16 4.1 0.25
4 2 17 3.9 0.25
4 2 18 2.19 0.2
4 3 0 4.17 0.19
4 3 1 382.22 4.16
4 3 2 2.52 0.16
4 3 3 21.67 0.35
4 3 4 154.72 1.58
4 3 5 3 0.19
4 3 6 141.37 1.39
4 3 7 171.53 2.05
4 3 8 2.36 0.21
4 3 9 433.15 4.96
4 3 10 107.22 1.13
4 3 11 125.54 1.31
4 3 12 57.22 0.87
4 3 13 57.73 1.19
4 3 14 8.3 0.24
4 3 15 10.31 0.32
4 3 16 6.32 0.27
4 3 17 53.63 0.89
4 3 18 11.78 0.3
4 4 0 42.49 0.52
4 4 1 232.57 2.55
4 4 2 19.36 0.32
4 4 3 569.99 5.71
4 4 4 2.25 0.2
4 4 5 306.65 2.95
4 4 6 155.34 1.59
4 4 7 336.32 3.61
4 4 8 42.87 0.78
4 4 9 23.5 0.45
4 4 10 3.19 0.24
4 4 11 16.16 0.36
4 4 12 0.16 0.2
4 4 13 71.35 1.29
4 4 14 11.48 0.4
4 4 15 141.18 1.91
4 4 16 4.71 0.29
4 4 17 29.64 0.54
4 4 18 8.28 0.28
4 5 0 263.57 2.37
4 5 1 145.6 1.39
4 5 2 9.31 0.24
4 5 3 80.89 0.9
4 5 4 142.78 1.71
4 5 5 14.21 0.36
4 5 6 2.06 0.2
4 5 7 187.13 2.06
4 5 8 1.33 0.18
4 5 9 121.4 1.33
4 5 10 34.32 0.68
4 5 11 303.05 5.07
4 5 12 0.03 0.2
4 5 13 86.71 1.35
4 5 14 17.77 0.62
4 5 15 0.23 0.24
4 5 16 1.09 0.23
4 5 17 22.31 0.45
4 6 0 145.91 1.45
4 6 1 33.95 0.5
4 6 2 12.18 0.3
4 6 3 87.85 1.07
4 6 4 3.81 0.24
4 6 5 226.66 2.81
4 6 6 179.58 2.32
4 6 7 161.92 1.88
4 6 8 43.64 0.8
4 6 9 20.88 0.45
4 6 10 76.65 1.03
4 6 11 0.67 0.22
4 6 12 8.37 0.34
4 6 13 56.28 1.06
4 6 14 0.54 0.29
4 6 15 86.52 1.43
4 6 16 1.35 0.26
4 6 17 12.08 0.38
4 7 0 292.57 3.13
4 7 1 1.6 0.18
4 7 2 285.75 3.53
4 7 3 118.23 1.43
4 7 4 336.11 3.34
4 7 5 0.89 0.18
4 7 6 39.78 0.58
4 7 7 23.91 0.39
4 7 8 62.49 0.8
4 7 9 0.55 0.2
4 7 10 40.59 0.6
4 7 11 187.81 2.15
4 7 12 17.45 0.47
4 7 13 34 1.11
4 7 14 23.78 0.61
4 7 15 1.83 0.28
4 7 16 5.74 0.31
4 8 0 667 7.49
4 8 1 4.99 0.2
4 8 2 8.07 0.25
4 8 3 5.08 0.22
4 8 4 19.58 0.35
4 8 5 2.06 0.2
4 8 6 13.89 0.3
4 8 7 70.21 0.8
4 8 8 237.71 2.75
4 8 9 20.96 0.55
4 8 10 140.05 1.61
4 8 11 1.31 0.28
4 8 12 0.19 0.38
4 8 13 1.28 0.24
4 8 14 25.63 0.62
4 8 15 12.12 0.45
4 9 0 192.67 1.91
4 9 1 0.16 0.17
4 9 2 78.47 1.24
4 9 3 20.07 0.44
4 9 4 362.48 3.92
4 9 5 124.04 1.34
4 9 6 39.93 0.54
4 9 7 26.47 0.42
4 9 8 18.51 0.44
4 9 9 0.52 0.18
4 9 10 0.54 0.25
4 9 11 0.45 0.24
4 9 12 11.26 0.36
4 9 13 1.66 0.23
4 9 14 36.28 0.6
4 9 15 8.55 0.34
4 10 0 56.38 0.62
4 10 1 182.69 1.92
4 10 2 1.83 0.18
4 10 3 81.93 1.01
4 10 4 2.09 0.18
4 10 5 23.61 0.44
4 10 6 51.81 0.82
4 10 7 3.24 0.27
4 10 8 24.01 0.75
4 10 9 8.91 0.31
4 10 10 49.69 0.8
4 10 11 23.17 0.6
4 10 12 15.99 0.4
4 10 13 0 0.2
4 10 14 2.56 0.26
4 11 0 52.27 0.99
4 11 1 41.03 0.66
4 11 2 13.76 0.29
4 11 3 0.35 0.16
4 11 4 33.47 0.58
4 11 5 69.88 0.84
4 11 6 7.5 0.3
4 11 7 27.99 0.51
4 11 8 24.36 0.47
4 11 9 47.51 0.69
4 11 10 1.09 0.2
4 11 11 3.09 0.24
4 11 12 -0.34 0.32
4 11 13 1.93 0.6
4 12 0 7.28 0.23
4 12 1 118.9 1.96
4 12 2 0 0.19
4 12 3 82.09 1.94
4 12 4 0.35 0.22
4 12 5 42.6 0.91
4 12 6 0.26 0.21
4 12 7 15.22 0.37
4 12 8 0.06 0.19
4 12 9 1.4 0.2
4 12 10 11.2 0.3
4 12 11 11.77 0.32
4 13 0 0.34 0.21
4 13 1 6.41 0.26
4 13 2 0.07 0.18
4 13 3 8 0.28
4 13 4 16.85 0.41
4 13 5 24.58 0.6
4 13 6 0.13 0.2
4 13 7 24.82 0.78
4 13 8 19.14 0.49
4 13 9 22.05 0.53
4 14 0 11.02 0.9
4 14 1 1.03 0.18
4 14 2 0.51 0.17
4 14 3 23.33 0.55
4 14 4 7.7 0.39
4 14 5 56.49 1.24
4 14 6 3.14 0.31
4 14 7 0.36 0.16
4 15 0 5.13 0.69
4 15 1 0.2 0.24
4 15 2 54.73 1.71
4 15 3 1.15 0.2
5 1 0 1927.97 20.33
5 1 1 73.2 0.83
5 1 2 117.12 1.29
5 1 3 355.17 3.15
5 1 4 667.46 6.36
5 1 5 4.38 0.22
5 1 6 324.91 3.35
5 1 7 36.84 0.59
5 1 8 361.74 4.2
5 1 9 6.11 0.22
5 1 10 57.58 0.7
5 1 11 98.28 1.11
5 1 12 80.5 0.95
5 1 13 6.71 0.24
5 1 14 12.59 0.43
5 1 15 1.38 0.24
5 1 16 5.39 0.27
5 1 17 11.74 0.32
5 1 18 47.85 0.88
5 2 0 258.3 2.99
5 2 1 5.65 0.23
5 2 2 902.76 8.31
5 2 3 138.53 1.39
5 2 4 1242.95 13.44
5 2 5 155.41 1.55
5 2 6 9.96 0.32
5 2 7 302.09 3.23
5 2 8 3.16 0.22
5 2 9 162.45 1.73
5 2 10 9.98 0.27
5 2 11 72.74 1.12
5 2 12 10.73 0.28
5 2 13 0.82 0.18
5 2 14 81.72 1.29
5 2 15 12.57 0.35
5 2 16 13.46 0.34
5 2 17 2.87 0.23
5 2 18 6.59 0.24
5 3 0 62.89 0.82
5 3 1 748.82 7.03
5 3 2 265.45 2.94
5 3 3 453.06 4.3
5 3 4 202.58 1.88
5 3 5 314.13 2.92
5 3 6 194.66 2.09
5 3 7 347.7 3.78
5 3 8 18.5 0.36
5 3 9 47.84 0.62
5 3 10 4.42 0.23
5 3 11 220.55 2.73
5 3 12 57.58 1.07
5 3 13 34.62 0.5
5 3 14 1.33 0.24
5 3 15 4.9 0.27
5 3 16 0.19 0.22
5 3 17 8.89 0.31
5 4 0 14.91 0.31
5 4 1 3.04 0.19
5 4 2 107.68 1.09
5 4 3 14.12 0.44
5 4 4 20.63 0.38
5 4 5 29.47 0.47
5 4 6 18.45 0.42
5 4 7 704.47 8.81
5 4 8 26.39 0.45
5 4 9 532.12 6.33
5 4 10 35.34 0.72
5 4 11 26.96 0.47
5 4 12 10.53 0.31
5 4 13 0.24 0.19
5 4 14 1.05 0.27
5 4 15 11.27 0.38
5 4 16 1.34 0.25
5 4 17 0.37 0.19
5 5 0 55.59 0.68
5 5 1 245.94 2.37
5 5 2 0.72 0.15
5 5 3 372.53 3.68
5 5 4 45.44 0.62
5 5 5 620.13 6.81
5 5 6 0.94 0.18
5 5 7 151.22 1.79
5 5 8 0.33 0.18
5 5 9 43.72 0.63
5 5 10 107.06 2.04
5 5 11 138.89 1.58
5 5 12 5.65 0.26
5 5 13 90.33 1.28
5 5 14 0.5 0.25
5 5 15 -0.16 0.36
5 5 16 1.33 0.2
5 5 17 0.3 0.18
5 6 0 18.37 0.36
5 6 1 182.06 1.86
5 6 2 267.76 2.82
5 6 3 0.51 0.18
5 6 4 64 0.81
5 6 5 82.11 1.06
5 6 6 36.15 0.56
5 6 7 100.87 1.06
5 6 8 3.55 0.24
5 6 9 515.42 6.32
5 6 10 2.86 0.24
5 6 11 27.13 0.75
5 6 12 33.13 1.21
5 6 13 49.24 0.96
5 6 14 8.72 0.66
5 6 15 0.22 0.26
5 6 16 25.24 0.57
5 7 0 139.51 1.71
5 7 1 1.11 0.17
5 7 2 11.29 0.29
5 7 3 148.97 1.64
5 7 4 3.31 0.2
5 7 5 194.89 1.93
5 7 6 217.39 2.17
5 7 7 41.61 0.54
5 7 8 68.24 0.82
5 7 9 11.86 0.32
5 7 10 23.34 0.46
5 7 11 52.33 1.11
5 7 12 38.53 0.82
5 7 13 25.66 0.64
5 7 14 19.35 0.54
5 7 15 10.17 0.39
5 7 16 17.13 0.62
5 8 0 146.78 1.45
5 8 1 0.17 0.17
5 8 2 630.18 8.06
5 8 3 13.05 0.31
5 8 4 64.36 0.74
5 8 5 2.3 0.19
5 8 6 75.07 0.84
5 8 7 38.26 0.52
5 8 8 2.28 0.19
5 8 9 80.28 1.09
5 8 10 0.8 0.22
5 8 11 5.38 0.31
5 8 12 9.98 0.44
5 8 13 7.11 0.38
5 8 14 24.1 0.58
5 8 15 0.64 0.23
5 9 0 114.05 1.17
5 9 1 1.74 0.21
5 9 2 9.28 0.3
5 9 3 8.29 0.24
5 9 4 41.41 0.56
5 9 5 2.25 0.19
5 9 6 235.11 2.44
5 9 7 24.06 0.45
5 9 8 8.6 0.24
5 9 9 22.94 1.03
5 9 10 22.65 0.92
5 9 11 1.95 0.25
5 9 12 56.46 0.86
5 9 13 2.67 0.29
5 9 14 8.54 0.8
5 10 0 6.49 0.32
5 10 1 14.26 0.35
5 10 2 374.84 4.39
5 10 3 46.48 0.59
5 10 4 96.91 1.09
5 10 5 0.94 0.16
5 10 6 0.11 0.16
5 10 7 1.39 0.23
5 10 8 0.34 0.21
5 10 9 11.78 0.33
5 10 10 7.93 0.52
5 10 11 11.65 0.58
5 10 12 13.27 0.48
5 10 13 1.74 0.42
5 11 0 91.22 1.22
5 11 1 71.56 1.37
5 11 2 3.99 0.23
5 11 3 0.95 0.18
5 11 4 45.53 0.85
5 11 5 60.33 0.84
5 11 6 34.06 0.97
5 11 7 2.92 0.24
5 11 8 -0.07 0.39
5 11 9 1.18 0.2
5 11 10 6.5 0.28
5 11 11 0.03 0.23
5 11 12 4.74 0.25
5 12 0 11.68 0.54
5 12 1 1.14 0.23
5 12 2 26 0.55
5 12 3 9.88 0.31
5 12 4 6.48 0.28
5 12 5 -0.08 0.4
5 12 6 4.24 0.25
5 12 7 39.21 0.6
5 12 8 21.47 0.41
5 12 9 24.06 0.51
5 12 10 7.89 0.31
5 13 0 33.99 1.39
5 13 1 26.42 0.96
5 13 2 2.74 0.36
5 13 3 22.36 0.8
5 13 4 2.37 0.28
5 13 5 20.09 0.4
5 13 6 0.1 0.18
5 13 7 7.64 0.26
5 13 8 1.25 0.18
5 14 0 11.5 0.37
5 14 1 1.8 0.27
5 14 2 0.56 0.19
5 14 3 0.87 0.19
5 14 4 0.06 0.16
5 14 5 0.88 0.16
5 14 6 3.86 0.34
5 15 0 -0.48 0.48
6 0 0 147.27 1.92
6 0 2 632.83 7.99
6 0 4 87.47 1.12
6 0 6 454.46 6.21
6 0 8 146.34 1.76
6 0 10 192.62 2.73
6 0 12 59.13 0.97
6 0 14 3.63 0.39
6 0 16 33.98 0.94
6 1 0 904.79 9.09
6 1 1 214.32 2.44
6 1 2 251.8 2.52
6 1 3 178.7 1.66
6 1 4 46.47 0.59
6 1 5 88.52 1.06
6 1 6 43.78 0.82
6 1 7 0.3 0.2
6 1 8 73.12 0.8
6 1 9 69.65 0.78
6 1 10 21.85 0.37
6 1 11 2.17 0.2
6 1 12 124.89 1.73
6 1 13 0.12 0.17
6 1 14 32.45 0.77
6 1 15 8.1 0.3
6 1 16 19.91 0.58
6 1 17 4.2 0.22
6 2 0 19.36 0.36
6 2 1 628.41 6.74
6 2 2 434.75 5.25
6 2 3 222.47 2.45
6 2 4 2.65 0.2
6 2 5 120.44 1.45
6 2 6 26.51 0.49
6 2 7 2.25 0.22
6 2 8 73.87 0.8
6 2 9 41.53 0.54
6 2 10 249.56 3.14
6 2 11 0.98 0.19
6 2 12 0.2 0.17
6 2 13 9.65 0.34
6 2 14 16.72 0.4
6 2 15 60.96 0.83
6 2 16 4.96 0.25
6 2 17 3.53 0.21
6 3 0 407.81 4.46
6 3 1 172.63 2.28
6 3 2 20.72 0.41
6 3 3 100.39 1.22
6 3 4 16.3 0.38
6 3 5 608.97 6.87
6 3 6 40.92 0.66
6 3 7 145.67 1.67
6 3 8 23.76 0.43
6 3 9 37.34 0.56
6 3 10 10.47 0.32
6 3 11 52.6 0.88
6 3 12 2.17 0.22
6 3 13 13.85 0.42
6 3 14 10.5 0.37
6 3 15 0.3 0.23
6 3 16 9.28 0.66
6 3 17 3.5 0.24
6 4 0 1.85 0.21
6 4 1 551.99 5.95
6 4 2 60.36 0.83
6 4 3 629.55 7.06
6 4 4 0.56 0.18
6 4 5 272.63 2.94
6 4 6 0.73 0.18
6 4 7 76.42 0.96
6 4 8 38.52 0.56
6 4 9 11.42 0.31
6 4 10 55 1.04
6 4 11 0.21 0.18
6 4 12 4.72 0.34
6 4 13 43.44 1.54
6 4 14 4.75 0.75
6 4 15 60.99 1.07
6 4 16 1.15 0.36
6 5 0 6.17 0.27
6 5 1 31.93 0.54
6 5 2 288.36 3.47
6 5 3 57.87 0.79
6 5 4 9.88 0.31
6 5 5 387.24 4.27
6 5 6 0.39 0.16
6 5 7 213.59 2.35
6 5 8 19.46 0.39
6 5 9 9.24 0.29
6 5 10 42.57 0.67
6 5 11 18.44 0.4
6 5 12 24.54 0.79
6 5 13 53.24 1.48
6 5 14 0.85 0.23
6 5 15 1.4 0.31
6 5 16 6.76 0.27
6 6 0 3.67 0.23
6 6 1 529.68 5.69
6 6 2 8.46 0.28
6 6 3 497.09 5.37
6 6 4 58.93 0.66
6 6 5 0.21 0.14
6 6 6 17 0.29
6 6 7 8.16 0.22
6 6 8 200.36 2.21
6 6 9 1.87 0.22
6 6 10 12.58 0.32
6 6 11 14.74 0.42
6 6 12 11.96 0.39
6 6 13 0.64 0.24
6 6 14 4.67 0.28
6 6 15 26.78 0.6
6 7 0 343.96 4.6
6 7 1 5.88 0.25
6 7 2 44.13 0.61
6 7 3 35.61 0.54
6 7 4 130.63 1.44
6 7 5 74.29 0.82
6 7 6 99.07 1.05
6 7 7 33.41 0.48
6 7 8 3.98 0.22
6 7 9 1.17 0.25
6 7 10 10.85 0.36
6 7 11 0.08 0.3
6 7 12 43.56 1.08
6 7 13 46.73 1.72
6 7 14 50.45 0.92
6 7 15 7.17 0.34
6 8 0 8.95 0.28
6 8 1 22.57 0.46
6 8 2 2.19 0.28
6 8 3 9.73 0.29
6 8 4 69.11 0.86
6 8 5 1.48 0.18
6 8 6 27.28 0.46
6 8 7 46.09 0.62
6 8 8 133.2 1.4
6 8 9 3.96 0.24
6 8 10 84.76 1.2
6 8 11 16.16 0.52
6 8 12 27.09 0.64
6 8 13 4.32 0.32
6 8 14 14.4 0.44
6 9 0 322.1 3.63
6 9 1 3.82 0.23
6 9 2 35.89 0.55
6 9 3 2.1 0.21
6 9 4 18.17 0.39
6 9 5 7.13 0.24
6 9 6 77.56 1
6 9 7 17.14 0.32
6 9 8 6.59 0.28
6 9 9 52.43 0.97
6 9 10 13.86 0.39
6 9 11 0.04 0.2
6 9 12 30.31 0.66
6 9 13 5.56 0.32
6 10 0 0.88 0.2
6 10 1 10.79 0.3
6 10 2 18.18 0.38
6 10 3 95.96 1.21
6 10 4 32.5 0.55
6 10 5 5.37 0.24
6 10 6 12.9 0.36
6 10 7 18.84 0.47
6 10 8 93.8 1.26
6 10 9 4.62 0.25
6 10 10 53.26 0.81
6 10 11 27.34 0.51
6 10 12 4.43 0.3
6 11 0 58.46 1.39
6 11 1 -0.11 0.4
6 11 2 3.28 0.25
6 11 3 7.23 0.34
6 11 4 2.76 0.4
6 11 5 28.52 0.51
6 11 6 9.78 0.4
6 11 7 108.7 1.6
6 11 8 24.34 0.44
6 11 9 9.72 0.31
6 11 10 1.48 0.2
6 11 11 13 0.54
6 12 0 89.91 1.5
6 12 1 25.02 1.11
6 12 2 12.73 0.46
6 12 3 125.76 1.72
6 12 4 9.83 0.36
6 12 5 26.41 0.54
6 12 6 3.93 0.23
6 12 7 1.27 0.19
6 12 8 3.92 0.22
6 12 9 5.28 0.22
6 13 0 2.69 0.28
6 13 1 39.89 1.45
6 13 2 18.35 0.69
6 13 3 6.03 0.28
6 13 4 11.71 0.36
6 13 5 35.79 0.62
6 13 6 0.83 0.21
6 13 7 23.07 0.47
6 14 0 32.48 1.48
6 14 1 26.19 0.6
6 14 2 4.8 0.34
6 14 3 56.85 0.97
6 14 4 1.76 0.19
7 1 0 36.82 0.59
7 1 1 79.91 1.14
7 1 2 163.21 2.33
7 1 3 26.65 0.5
7 1 4 273.79 3.17
7 1 5 24.2 0.57
7 1 6 233.51 2.47
7 1 7 2.89 0.19
7 1 8 227.25 3.05
7 1 9 10.87 0.27
7 1 10 238.72 2.58
7 1 11 9.61 0.26
7 1 12 33.6 0.48
7 1 13 9.19 0.38
7 1 14 53.49 0.75
7 1 15 5.57 0.4
7 1 16 13.07 0.47
7 2 0 54.18 0.78
7 2 1 56.35 0.98
7 2 2 343.09 3.64
7 2 3 50.56 0.93
7 2 4 67.6 1.1
7 2 5 1.67 0.23
7 2 6 264.35 3.97
7 2 7 347.68 4.28
7 2 8 16.07 0.4
7 2 9 84.3 1.13
7 2 10 19.75 0.44
7 2 11 -0.4 0.44
7 2 12 109.72 2.91
7 2 13 12.32 0.44
7 2 14 45.96 1.51
7 2 15 1.65 0.19
7 2 16 10.83 0.5
7 3 0 26.34 0.63
7 3 1 163.3 2.28
7 3 2 1.59 0.27
7 3 3 479.26 6.72
7 3 4 1.43 0.35
7 3 5 66.52 0.94
7 3 6 20.7 0.44
7 3 7 0.05 0.19
7 3 8 231.85 3.09
7 3 9 2.09 0.21
7 3 10 6.95 0.31
7 3 11 105.8 1.69
7 3 12 18.53 0.56
7 3 13 69.26 2.41
7 3 14 1.13 0.24
7 3 15 7.85 0.31
7 3 16 22.48 0.44
7 4 0 222.14 2.82
7 4 1 6.91 0.38
7 4 2 42.7 0.65
7 4 3 39.86 0.84
7 4 4 11.99 0.35
7 4 5 200.88 2.32
7 4 6 4.63 0.37
7 4 7 231.33 2.5
7 4 8 1.97 0.22
7 4 9 158.07 2.25
7 4 10 17.38 0.37
7 4 11 60.54 1.2
7 4 12 71.1 1.78
7 4 13 1.23 0.25
7 4 14 0.82 0.23
7 4 15 0.26 0.2
7 4 16 -0.04 0.32
7 5 0 17.63 0.4
7 5 1 317.86 4.25
7 5 2 43.54 0.74
7 5 3 121.53 1.68
7 5 4 16.55 0.37
7 5 5 125.06 1.41
7 5 6 35.89 0.54
7 5 7 32.7 0.51
7 5 8 1 0.2
7 5 9 49.84 0.68
7 5 10 0.62 0.19
7 5 11 53.55 1.49
7 5 12 0.98 0.25
7 5 13 34.73 0.69
7 5 14 0.41 0.32
7 5 15 43.16 0.71
7 6 0 295.94 3.12
7 6 1 1.15 0.16
7 6 2 49.62 0.66
7 6 3 21.04 0.52
7 6 4 77.85 0.84
7 6 5 30.64 0.59
7 6 6 0.4 0.2
7 6 7 157.88 1.67
7 6 8 1.85 0.25
7 6 9 77.47 0.95
7 6 10 38.3 0.78
7 6 11 29.89 0.58
7 6 12 1.54 0.26
7 6 13 0.25 0.23
7 6 14 27.74 0.52
7 6 15 -0.09 0.37
7 7 0 36.62 0.63
7 7 1 77.03 0.99
7 7 2 7.02 0.33
7 7 3 -0.04 0.46
7 7 4 80.54 1.37
7 7 5 65.97 1.03
7 7 6 153.38 1.71
7 7 7 40.75 0.76
7 7 8 40.72 0.7
7 7 9 30.53 0.97
7 7 10 49.01 0.94
7 7 11 2.39 0.32
7 7 12 0.96 0.3
7 7 13 6.66 0.51
7 7 14 2.36 0.28
7 8 0 47.31 0.65
7 8 1 19.13 0.47
7 8 2 164.72 2.09
7 8 3 0.5 0.2
7 8 4 268.96 3.35
7 8 5 0.12 0.19
7 8 6 16.7 0.36
7 8 7 3.46 0.2
7 8 8 4.96 0.26
7 8 9 4.78 0.4
7 8 10 22.97 1.43
7 8 11 20.58 1.03
7 8 12 76.04 1.25
7 8 13 0.8 0.26
7 9 0 36.37 0.62
7 9 1 72.51 1.05
7 9 2 17.09 0.45
7 9 3 4.51 0.25
7 9 4 9.19 0.31
7 9 5 0.45 0.18
7 9 6 92.92 2.39
7 9 7 1.25 0.25
7 9 8 99.07 1.23
7 9 9 19.54 0.44
7 9 10 27.86 0.64
7 9 11 -0.05 0.34
7 9 12 2.28 0.27
7 10 0 59.76 0.97
7 10 1 1.89 0.24
7 10 2 35.57 0.66
7 10 3 8.54 0.3
7 10 4 60.05 2.12
7 10 5 78.09 1.33
7 10 6 13.85 0.41
7 10 7 1.15 0.25
7 10 8 0.82 0.2
7 10 9 3.38 0.25
7 10 10 23.62 0.46
7 10 11 0.15 0.23
7 11 0 8.11 0.43
7 11 1 72.31 2.02
7 11 2 2.44 0.32
7 11 3 26.96 0.55
7 11 4 0.08 0.23
7 11 5 3.82 0.29
7 11 6 26.89 0.54
7 11 7 4.44 0.32
7 11 8 14.36 0.4
7 11 9 5.1 0.23
7 11 10 22.55 0.51
7 12 0 1.69 0.31
7 12 1 1.93 0.51
7 12 2 0.04 0.27
7 12 3 12.66 0.51
7 12 4 18.56 0.54
7 12 5 68.83 1
7 12 6 1.97 0.28
7 12 7 6.39 0.28
7 12 8 5.07 0.26
7 13 0 0.3 0.27
7 13 1 57.71 1.43
7 13 2 27.86 0.64
7 13 3 8.8 0.33
7 13 4 0.8 0.36
7 13 5 6.03 0.26
7 13 6 -0.06 0.3
7 14 0 10.31 0.77
7 14 1 21.08 0.52
7 14 2 19.12 0.55
8 0 0 98.15 1.8
8 0 2 78.93 1.32
8 0 4 477.1 6.81
8 0 6 248.88 3.89
8 0 8 580.69 10.95
8 0 10 1.58 0.25
8 0 12 61.28 1.76
8 0 14 2.66 0.4
8 1 0 459.72 5
8 1 1 30.92 0.56
8 1 2 272.61 3.81
8 1 3 0.08 0.2
8 1 4 525.57 6.55
8 1 5 122.84 1.52
8 1 6 8.05 0.35
8 1 7 22.56 0.55
8 1 8 95.63 1.2
8 1 9 1.56 0.17
8 1 10 215.37 2.69
8 1 11 27.66 0.65
8 1 12 9.21 0.3
8 1 13 0.13 0.19
8 1 14 1.42 0.2
8 1 15 18.66 0.36
8 2 0 18.54 0.42
8 2 1 494.84 5.58
8 2 2 0.77 0.23
8 2 3 42.5 0.71
8 2 4 152.2 2.67
8 2 5 0.54 0.28
8 2 6 389.06 4.96
8 2 7 0.14 0.25
8 2 8 175.8 2.08
8 2 9 25.29 0.39
8 2 10 12.86 0.4
8 2 11 16.19 0.75
8 2 12 1.63 0.26
8 2 13 32.6 0.86
8 2 14 2.87 0.25
8 2 15 20.3 0.5
8 3 0 274.24 3.58
8 3 1 6.29 0.26
8 3 2 10.95 0.34
8 3 3 288.05 3.75
8 3 4 140.42 1.73
8 3 5 333.68 4.15
8 3 6 0.28 0.38
8 3 7 26.55 0.78
8 3 8 46.56 0.75
8 3 9 52.08 1.04
8 3 10 82.05 1.6
8 3 11 47.45 0.78
8 3 12 5.07 0.3
8 3 13 0.8 0.24
8 3 14 0.74 0.22
8 3 15 24.79 0.47
8 4 0 13.58 0.39
8 4 1 842.63 10.61
8 4 2 37.3 0.66
8 4 3 206.65 3.15
8 4 4 43.56 0.74
8 4 5 27.95 0.73
8 4 6 18.97 0.66
8 4 7 0.31 0.35
8 4 8 1.17 0.26
8 4 9 12.84 0.35
8 4 10 5.97 0.27
8 4 11 66.85 1.56
8 4 12 -0.11 0.41
8 4 13 58.37 1.06
8 4 14 3.05 0.24
8 4 15 24.1 0.45
8 5 0 0.62 0.25
8 5 1 38.25 0.51
8 5 2 0.47 0.18
8 5 3 357.7 4.46
8 5 4 17.69 0.48
8 5 5 179.05 2.79
8 5 6 5.63 0.39
8 5 7 36.71 0.65
8 5 8 24.15 0.52
8 5 9 58.53 0.8
8 5 10 21.06 0.49
8 5 11 17.38 0.44
8 5 12 41.21 1.33
8 5 13 2.12 0.25
8 5 14 9.25 0.31
8 6 0 1.23 0.17
8 6 1 160.66 2.01
8 6 2 25.37 0.5
8 6 3 124.54 2.09
8 6 4 5.01 0.31
8 6 5 0.43 0.24
8 6 6 92.59 1.26
8 6 7 56.41 0.86
8 6 8 28.85 0.57
8 6 9 0.1 0.24
8 6 10 16.79 0.53
8 6 11 1.61 0.26
8 6 12 0.46 0.24
8 6 13 108.46 1.96
8 6 14 0.42 0.2
8 7 0 56.48 0.74
8 7 1 48.58 0.78
8 7 2 238.29 3.68
8 7 3 99.66 1.64
8 7 4 3.97 0.28
8 7 5 40.91 0.75
8 7 6 25.85 0.59
8 7 7 3.21 0.39
8 7 8 16.34 1.03
8 7 9 5.98 0.82
8 7 10 59.72 1.06
8 7 11 4.95 0.46
8 7 12 28.94 0.64
8 7 13 3.64 0.32
8 8 0 4.09 0.3
8 8 1 51.66 0.82
8 8 2 4.53 0.28
8 8 3 16.36 0.43
8 8 4 66.82 1.3
8 8 5 38.67 0.73
8 8 6 167.38 2.55
8 8 7 0.45 0.32
8 8 8 56.97 1.72
8 8 9 2.6 0.73
8 8 10 19.65 0.54
8 8 11 -0.05 0.38
8 8 12 5.76 0.34
8 9 0 76.47 1.52
8 9 1 0.13 0.21
8 9 2 105.17 1.47
8 9 3 10.95 0.46
8 9 4 23.85 0.95
8 9 5 0.72 0.3
8 9 6 37.35 1.11
8 9 7 31.28 0.64
8 9 8 54.25 0.99
8 9 9 0.62 0.62
8 9 10 47.49 1.59
8 9 11 0.51 0.24
8 10 0 1.84 0.33
8 10 1 0.5 0.3
8 10 2 0.1 0.28
8 10 3 11.75 0.47
8 10 4 7.94 0.4
8 10 5 21.82 0.67
8 10 6 169.38 2.27
8 10 7 3.64 0.27
8 10 8 23.41 0.48
8 10 9 0.22 0.66
8 10 10 -0.62 0.61
8 11 0 4.84 0.37
8 11 1 3.08 0.34
8 11 2 18.37 0.56
8 11 3 42.09 0.86
8 11 4 30.27 0.7
8 11 5 0.95 0.45
8 11 6 5.78 0.28
8 11 7 18.91 0.42
8 11 8 35.78 1.19
8 12 0 16.28 0.51
8 12 1 41.67 0.84
8 12 2 1.71 0.42
8 12 3 15.24 0.86
8 12 4 2.99 0.3
8 12 5 1.63 0.26
8 12 6 6.77 0.28
8 13 0 10.97 0.41
8 13 1 2.29 0.28
8 13 2 5.4 0.46
8 13 3 8.66 0.36
8 13 4 0.79 0.23
9 1 0 2.03 0.19
9 1 1 9.35 0.26
9 1 2 378.37 3.8
9 1 3 38.08 0.52
9 1 4 125.48 1.39
9 1 5 17.64 0.71
9 1 6 174.45 2.18
9 1 7 19.68 0.47
9 1 8 0.81 0.25
9 1 9 0.52 0.23
9 1 10 55.17 0.85
9 1 11 12.22 0.37
9 1 12 21.63 0.75
9 1 13 16.72 0.42
9 1 14 -0.17 0.34
9 2 0 187.37 2.12
9 2 1 4.47 0.3
9 2 2 152.19 1.75
9 2 3 45.91 0.8
9 2 4 1.85 0.3
9 2 5 50.17 1.08
9 2 6 62.35 1.25
9 2 7 53.75 1.15
9 2 8 0.33 0.26
9 2 9 84.52 2.11
9 2 10 0.17 0.22
9 2 11 0.12 0.19
9 2 12 43.53 0.71
9 2 13 9.74 0.33
9 2 14 36.66 1.93
9 3 0 23.45 0.44
9 3 1 26.78 0.47
9 3 2 92.46 1.74
9 3 3 8.03 0.37
9 3 4 53.49 0.84
9 3 5 112.45 1.47
9 3 6 8.8 0.5
9 3 7 2.56 0.45
9 3 8 15.11 0.66
9 3 9 68.51 1.89
9 3 10 73.78 4.32
9 3 11 49.61 1.09
9 3 12 0.49 0.23
9 3 13 31.34 0.86
9 3 14 3.42 0.24
9 4 0 12.83 0.38
9 4 1 116.71 1.57
9 4 2 10.61 0.39
9 4 3 21.93 0.65
9 4 4 -0.04 0.51
9 4 5 24.75 0.54
9 4 6 0.48 0.36
9 4 7 263.56 4.56
9 4 8 0.02 0.33
9 4 9 100.35 2.33
9 4 10 18.16 0.54
9 4 11 1.25 0.3
9 4 12 -0.03 0.52
9 4 13 0.36 0.21
9 4 14 13.75 0.56
9 5 0 46.1 0.87
9 5 1 27.55 0.53
9 5 2 46.36 0.95
9 5 3 9.1 0.46
9 5 4 78.47 1.25
9 5 5 51.01 1.25
9 5 6 29.29 0.8
9 5 7 3.48 0.39
9 5 8 4.64 0.73
9 5 9 42.33 2.24
9 5 10 0.97 0.3
9 5 11 92.84 3.7
9 5 12 1.75 0.23
9 5 13 13.67 0.46
9 6 0 87.15 1.28
9 6 1 41.31 1.03
9 6 2 95.07 1.69
9 6 3 19.01 1.06
9 6 4 9.92 0.36
9 6 5 64.3 1.4
9 6 6 5.08 0.3
9 6 7 67.4 1.82
9 6 8 11.08 0.88
9 6 9 28.34 0.83
9 6 10 22.81 0.59
9 6 11 17.14 0.51
9 6 12 19.63 1.2
9 7 0 2.03 0.17
9 7 1 1.97 0.2
9 7 2 59.19 0.76
9 7 3 0.18 0.2
9 7 4 173.33 3.15
9 7 5 15.08 0.46
9 7 6 14.7 0.5
9 7 7 8.7 0.42
9 7 8 73.86 1.93
9 7 9 0.24 0.26
9 7 10 0.29 0.26
9 7 11 41.59 1.5
9 7 12 0.48 0.65
9 8 0 262.59 3.14
9 8 1 18.08 0.74
9 8 2 82.89 1.33
9 8 3 19.86 0.46
9 8 4 6.68 0.38
9 8 5 12.92 1
9 8 6 2 0.75
9 8 7 6.51 0.87
9 8 9 8.68 0.82
9 8 10 5.57 0.75
9 8 11 0.21 0.59
9 9 0 2.07 0.33
9 9 1 21.57 0.6
9 9 2 39.96 0.84
9 9 3 69.94 1.52
9 9 4 196.61 5.21
9 9 5 17.55 0.76
9 9 6 5.72 0.86
9 9 7 8.93 0.96
9 9 9 2.1 0.65
9 9 10 6.87 0.77
9 10 0 47.19 2.66
9 10 1 0.98 0.3
9 10 2 66.76 2.47
9 10 3 15.19 0.51
9 10 4 4.97 0.35
9 10 5 47.75 0.9
9 10 6 29.23 0.64
9 10 7 23.91 1.26
9 10 8 0.25 0.84
9 11 0 2.31 0.32
9 11 1 75.6 2.02
9 11 2 7.18 0.38
9 11 3 18.49 0.78
9 11 4 47.3 1.13
9 11 5 0.06 0.24
9 11 6 0.2 0.24
9 11 7 0.2 0.23
9 12 0 19.07 0.78
9 12 1 3.45 0.44
9 12 2 10.55 0.4
9 12 3 12.53 0.42
9 12 4 14.1 0.8
10 0 0 44.76 0.76
10 0 2 25.67 0.55
10 0 4 223.57 3.63
10 0 6 223.77 3.73
10 0 8 89.15 2.1
10 0 10 3.12 0.65
10 0 12 0.83 0.58
10 1 0 134.71 1.59
10 1 1 0.22 0.18
10 1 2 96.84 1.03
10 1 3 43.96 0.6
10 1 4 35.43 0.62
10 1 5 18.6 0.44
10 1 6 11.57 0.37
10 1 7 19.11 0.58
10 1 8 183.85 2.83
10 1 9 8.5 0.4
10 1 10 30.25 0.68
10 1 11 1 0.27
10 1 12 54.95 0.96
10 1 13 2.75 0.27
10 2 0 1.51 0.23
10 2 1 192.18 2.1
10 2 2 16.08 0.38
10 2 3 106.35 1.71
10 2 4 164.44 2.1
10 2 5 19.64 0.66
10 2 6 61.28 1.36
10 2 7 1.23 0.36
10 2 8 88.7 2.15
10 2 9 24 1.17
10 2 10 2.38 0.65
10 2 11 90.9 2.23
10 2 12 4.82 0.73
10 2 13 3.44 0.68
10 3 0 1.63 0.29
10 3 1 41.59 0.61
10 3 2 173.77 1.92
10 3 3 70.77 1.04
10 3 4 0.94 0.27
10 3 5 171.94 4.97
10 3 6 1.23 0.36
10 3 7 187.6 6.66
10 3 8 8.9 0.86
10 3 9 4.5 0.75
10 3 10 21.07 1.14
10 3 11 0.57 0.62
10 3 12 28.71 1.27
10 3 13 11.06 0.88
10 4 0 16.44 0.38
10 4 1 186.95 2.08
10 4 2 3.86 0.31
10 4 3 92.84 1.28
10 4 4 2.06 0.27
10 4 5 11.12 0.39
10 4 6 21.14 1.19
10 4 7 43.78 1.51
10 4 8 9.96 0.89
10 4 9 87.35 2.19
10 4 10 7.26 0.84
10 4 11 65.51 1.88
10 4 12 5.74 0.76
10 5 0 45.21 0.81
10 5 1 1.77 0.25
10 5 2 0.12 0.25
10 5 3 170.42 2.37
10 5 4 0.96 0.31
10 5 5 162.1 2.58
10 5 6 10.74 0.88
10 5 7 94.34 2.24
10 5 8 0.66 0.59
10 5 9 36.38 1.4
10 5 10 13.01 0.95
10 5 11 0.21 0.59
10 5 12 1.03 0.6
10 6 0 1.05 0.18
10 6 1 131.31 2.43
10 6 2 53.37 0.84
10 6 3 65.91 0.98
10 6 4 32.16 1.03
10 6 5 2.87 0.35
10 6 6 20.4 0.64
10 6 7 5.99 0.74
10 6 8 5.69 0.74
10 6 9 59.98 1.77
10 6 10 2.67 0.64
10 7 0 109.56 1.61
10 7 1 38.61 0.85
10 7 2 2.29 0.25
10 7 3 77.16 1.31
10 7 4 25.15 0.67
10 7 5 28.88 0.71
10 7 6 16.01 0.51
10 7 7 23.92 1.14
10 7 8 13.01 0.9
10 7 9 29.45 1.23
10 8 0 53.39 1.53
10 8 1 1.83 0.34
10 8 2 55.03 1.91
10 8 3 15.31 1.09
10 8 4 7.44 0.9
10 8 5 13.91 1.05
10 8 6 132.66 2.81
10 8 7 2 0.78
10 9 0 56.3 2.41
10 9 1 5.3 0.44
10 9 2 25.04 1.27
10 9 3 11.23 0.45
10 9 4 7.69 0.93
10 9 5 0.54 0.76
10 9 6 11.32 1
10 9 7 15.72 1.1
10 10 0 1.15 0.3
10 10 1 6.85 0.39
10 10 2 15.62 0.52
10 10 3 4.02 0.33
10 10 4 22.87 1.33
10 10 5 -0.06 0.74
10 10 6 23.44 1.25
10 11 0 17.4 0.5
10 11 1 29.99 1.99
10 11 2 0.14 0.26
10 11 3 11.94 0.44
10 11 4 5.87 0.32
10 12 0 0.3 0.24
10 12 1 13.92 0.93
11 1 0 225.74 3.16
11 1 1 56.23 0.68
11 1 2 239.52 2.49
11 1 3 5.13 0.26
11 1 4 96.68 1.29
11 1 5 0.13 0.2
11 1 6 7.59 0.95
11 1 7 3.18 0.3
11 1 8 41.47 0.81
11 1 9 42.17 0.81
11 1 10 1.6 0.26
11 1 11 1.14 0.24
11 1 12 0.75 0.22
11 2 0 319.06 3.69
11 2 1 14.63 0.46
11 2 2 1.47 0.28
11 2 3 108.14 1.46
11 2 4 20.45 0.56
11 2 5 112.87 2.09
11 2 6 11.14 0.87
11 2 7 8.8 0.82
11 2 8 0.33 0.58
11 2 9 0.12 0.56
11 2 10 57.88 1.75
11 2 11 2.63 0.65
11 2 12 7.9 0.78
11 3 0 55.25 0.75
11 3 1 66.99 0.86
11 3 2 67.94 1.01
11 3 3 29.47 0.6
11 3 4 31.57 0.62
11 3 5 6.87 0.76
11 3 6 3.69 0.68
11 3 7 101 2.35
11 3 8 13.2 0.95
11 3 9 58.89 1.77
11 3 10 0.76 0.59
11 3 11 0.92 0.6
11 4 0 55.74 0.78
11 4 1 33.21 0.54
11 4 2 31 0.61
11 4 3 136.54 2.49
11 4 4 1.33 0.3
11 4 5 299.9 4.99
11 4 6 0.71 0.6
11 4 7 12.56 0.94
11 4 8 2.56 0.67
11 4 9 4.69 0.73
11 4 10 1.89 0.64
11 4 11 1.85 0.62
11 5 0 9.26 0.3
11 5 1 58.13 1.05
11 5 2 41.41 0.72
11 5 3 58.4 2.06
11 5 4 4.79 0.39
11 5 5 29.2 0.72
11 5 6 21.23 1.13
11 5 7 101.18 2.37
11 5 8 14.32 0.96
11 5 9 35.84 1.39
11 5 10 2.4 0.64
11 6 0 12.56 0.45
11 6 1 90.21 2.21
11 6 2 36.47 1.73
11 6 3 93.87 3.35
11 6 4 3.19 0.4
11 6 5 54.79 1.03
11 6 6 0.55 0.29
11 6 7 37.88 1.43
11 6 8 19.22 1.05
11 6 9 8.23 0.8
11 6 10 10.23 0.83
11 7 0 13.55 0.41
11 7 1 23.82 0.62
11 7 2 26.47 0.66
11 7 3 15.66 0.52
11 7 4 48.83 0.93
11 7 5 21.98 1.1
11 7 6 39.56 1.09
11 7 7 27.84 1.21
11 7 8 1.71 0.58
11 7 9 8.72 0.77
11 8 0 49.74 0.95
11 8 1 4.74 0.9
11 8 2 12.67 1.06
11 8 3 3.51 0.84
11 8 4 3.98 0.84
11 8 5 25.83 1.3
11 8 6 -0.08 0.76
11 9 0 12.67 0.46
11 9 1 4.07 0.34
11 9 2 64.6 1.93
11 9 3 2.15 0.82
11 9 4 25.1 1.29
11 9 5 6.2 0.9
11 9 6 7.62 0.95
11 10 0 51.19 1.95
11 10 1 3.16 0.32
11 10 2 1.48 0.28
11 10 3 3.76 0.83
11 10 4 20.02 1.19
11 11 0 7.23 0.34
11 11 1 3.04 0.51
12 0 0 0.5 0.23
12 0 2 3.57 0.29
12 0 4 97.52 2.23
12 0 6 180.57 3.75
12 0 8 3.18 0.64
12 0 10 7.74 0.76
12 1 0 1.53 0.2
12 1 1 64.53 0.94
12 1 2 25.46 0.42
12 1 3 6.05 0.33
12 1 4 15.79 0.58
12 1 5 0.68 0.28
12 1 6 2.57 0.38
12 1 7 11.74 0.42
12 1 8 63.9 1.81
12 1 9 -0.58 0.54
12 1 10 77.35 2
12 2 0 1.77 0.23
12 2 1 3.82 0.26
12 2 2 5.29 0.45
12 2 3 -0.12 0.48
12 2 4 2.61 0.38
12 2 5 2.7 0.68
12 2 6 178.3 3.76
12 2 7 20.93 1.11
12 2 8 3.48 0.69
12 2 9 1.45 0.63
12 2 10 -0.06 0.58
12 3 0 5.71 0.27
12 3 1 119.94 2.13
12 3 2 0.68 0.38
12 3 3 129.93 3.22
12 3 4 49.3 0.97
12 3 5 3.53 0.71
12 3 6 1.37 0.63
12 3 7 7.32 0.81
12 3 8 26.12 1.23
12 3 9 29.45 1.28
12 3 10 3.07 0.68
12 4 0 30.29 0.62
12 4 1 63.63 1.21
12 4 2 2.57 0.36
12 4 3 5.3 0.4
12 4 4 12.8 0.5
12 4 5 35.1 1.39
12 4 6 7.28 0.81
12 4 7 1.09 0.62
12 4 8 3.2 0.69
12 4 9 7.92 0.82
12 5 0 55.28 0.88
12 5 1 118.03 2.4
12 5 2 0.56 0.31
12 5 3 55.11 1.48
12 5 4 3.16 0.35
12 5 5 13.96 0.5
12 5 6 0.36 0.57
12 5 7 4.24 0.71
12 5 8 20.29 1.09
12 5 9 20.2 1.07
12 6 0 34.27 0.87
12 6 1 26.38 1.31
12 6 2 5.25 0.37
12 6 3 45.6 1.14
12 6 4 63.15 1.12
12 6 5 -0.11 0.39
12 6 6 8.86 0.81
12 6 7 0.1 0.53
12 6 8 3.41 0.64
12 7 0 4.56 0.35
12 7 1 40.66 1.5
12 7 2 24.5 1.02
12 7 3 0.6 0.44
12 7 4 1.01 0.28
12 7 5 0.99 0.28
12 7 6 24.51 1.14
12 7 7 0.25 0.51
12 8 0 5.86 0.92
12 8 1 1.52 0.81
12 8 2 12.03 1.04
12 8 3 11.13 1.03
12 8 4 77.4 2.08
12 8 5 0.29 0.78
12 9 0 0.34 0.78
12 9 1 1.45 0.8
12 9 2 6.35 0.92
12 9 3 0.86 0.78
12 10 0 17.72 0.47
13 1 0 18.83 0.5
13 1 1 0.97 0.28
13 1 2 174.83 2.37
13 1 3 3.91 0.38
13 1 4 141 2.93
13 1 5 7.88 0.8
13 1 6 16.13 1
13 1 7 9.36 0.84
13 1 8 14.17 0.94
13 2 0 27.36 0.86
13 2 1 15.66 0.74
13 2 2 41.4 0.86
13 2 3 15.1 0.53
13 2 4 7.62 0.81
13 2 5 73.86 1.98
13 2 6 30.42 1.29
13 2 7 5.21 0.76
13 2 8 71.07 1.92
13 3 0 28.47 0.6
13 3 1 46.13 0.78
13 3 2 5.19 0.38
13 3 3 0.18 0.31
13 3 4 56.34 1.47
13 3 5 19.74 1.09
13 3 6 19.21 1.08
13 3 7 21.69 1.12
13 3 8 0.55 0.6
13 4 0 3.68 0.31
13 4 1 39.73 1.03
13 4 2 27.31 0.66
13 4 3 101.38 1.77
13 4 4 20.83 0.58
13 4 5 41.83 1.48
13 4 6 1.42 0.59
13 4 7 26.54 1.21
13 5 0 1.81 0.32
13 5 1 7.18 0.39
13 5 2 2.99 0.5
13 5 3 3.97 0.34
13 5 4 1.39 0.3
13 5 5 8.26 0.8
13 5 6 0.41 0.54
13 6 0 14.19 1.03
13 6 1 2.95 0.32
13 6 2 2.3 0.3
13 6 3 58.82 2.35
13 6 4 0.74 0.29
13 6 5 40.23 1.44
13 7 0 14.61 0.46
13 7 1 0.04 0.28
13 7 2 66.7 1.11
13 7 3 11.17 1.03
13 7 4 8.56 0.98
13 8 0 71.53 2.01
13 8 1 0.14 0.23
13 8 2 1.53 0.81
14 0 0 180.08 7.1
14 0 2 75.58 1.89
14 0 4 37.44 1.36
14 0 6 5.62 0.7
14 1 0 37.24 0.92
14 1 1 -0.01 0.44
14 1 2 1.56 0.48
14 1 3 21.19 1.07
14 1 4 29.5 1.24
14 1 5 0.48 0.58
14 1 6 88.93 2.13
14 2 0 36.64 0.87
14 2 1 2.11 0.32
14 2 2 36.52 1.53
14 2 3 5.24 0.35
14 2 4 63.72 1.8
14 2 5 2.17 0.63
14 3 0 8.64 0.36
14 3 1 68.06 1.54
14 3 2 3.14 0.31
14 3 3 15.47 0.48
14 3 4 5.57 0.69
14 3 5 4.84 0.69
14 4 0 2.55 0.28
14 4 1 9.76 0.51
14 4 2 0.63 0.27
14 4 3 16.93 0.5
14 4 4 4.76 0.33
14 5 0 2.58 0.3
14 5 1 83.02 5.05
14 5 2 31.12 0.66
14 5 3 3.08 0.3
14 6 0 2.36 0.28
14 6 1 2.85 0.28
14 6 2 19.67 0.51
15 1 0 31.5 0.58
15 1 1 8.7 0.33
15 1 2 23.94 0.66
15 2 0 3.13 0.26
15 2 1 19.74 0.51
15 2 2 9.03 0.78
15 3 0 1.18 0.23
15 3 1 6.99 0.34
15 4 0 4.22 0.95
