#------------------------------------------------------------------------------
#$Date: 2016-02-18 10:40:55 +0200 (Thu, 18 Feb 2016) $
#$Revision: 176722 $
#$URL: svn://www.crystallography.net/cod/cif/3/50/00/3500018.cif $
#------------------------------------------------------------------------------
#
# This file is available in the Crystallography Open Database (COD),
# http://www.crystallography.net/
#
# All data on this site have been placed in the public domain by the
# contributors.
#
data_3500018
loop_
_publ_author_name
'Thierry Maris'
_publ_section_references
;
Dolomanov, O.V., Bourhis, L.J., Gildea, R.J, Howard, J.A.K. & Puschmann, H.
 (2009), J. Appl. Cryst. 42, 339-341.

Sheldrick, G.M. (2008). Acta Cryst. A64, 112-122.
;
_publ_section_title
;
 3-bromobenzonitrile
;
_journal_name_full               'Personal communication to COD'
_journal_year                    2014
_chemical_formula_moiety         'C7 H4 Br N'
_chemical_formula_sum            'C7 H4 Br N'
_chemical_formula_weight         182.02
_chemical_name_systematic
;
 ?
;
_space_group_crystal_system      monoclinic
_space_group_IT_number           14
_space_group_name_Hall           '-P 2yn'
_space_group_name_H-M_alt        'P 1 21/n 1'
_symmetry_space_group_name_Hall  '-P 2yn'
_symmetry_space_group_name_H-M   'P 1 21/n 1'
_atom_sites_solution_hydrogens   geom
_atom_sites_solution_primary     direct
_audit_creation_date             2014-07-14
_audit_creation_method
;
Olex2 1.2
(compiled 2014.06.27 svn.r2953 for OlexSys, GUI svn.r4855)
;
_cell_angle_alpha                90
_cell_angle_beta                 93.1813(14)
_cell_angle_gamma                90
_cell_formula_units_Z            4
_cell_length_a                   7.5336(3)
_cell_length_b                   3.9605(2)
_cell_length_c                   22.3029(8)
_cell_measurement_reflns_used    9633
_cell_measurement_temperature    150
_cell_measurement_theta_max      69.933
_cell_measurement_theta_min      3.970
_cell_volume                     664.42(5)
_computing_cell_refinement
;
SAINT (2013) V8.34A; Integration Software for Single Crystal Data. 
Bruker AXS Inc., Madison, WI 53719-1173.
;
_computing_data_collection
;
APEX 2 (2013) Bruker AXS Inc., Madison, WI 53719-1173.
;
_computing_data_reduction
;
SAINT (2013) V8.34A; Integration Software for Single Crystal Data. 
Bruker AXS Inc., Madison, WI 53719-1173.
;
_computing_molecular_graphics    'Olex2 (Dolomanov et al., 2009)'
_computing_publication_material  'Olex2 (Dolomanov et al., 2009)'
_computing_structure_refinement  'XL (Sheldrick, 2008)'
_computing_structure_solution    'XS (Sheldrick, 2008)'
_diffrn_ambient_temperature      150
_diffrn_detector                 'CCD area detector'
_diffrn_detector_area_resol_mean 8.3
_diffrn_detector_type            'Bruker Platinum 135 CCD Area Detector'
_diffrn_measured_fraction_theta_full 0.999
_diffrn_measured_fraction_theta_max 0.994
_diffrn_measurement_device       'k-geometry diffractometer'
_diffrn_measurement_device_type  'Bruker Microstar X8'
_diffrn_measurement_method       '\w scans'
_diffrn_radiation_collimation    'Focusing mirrors'
_diffrn_radiation_monochromator  'Helios Mirror Optics'
_diffrn_radiation_probe          x-ray
_diffrn_radiation_type           CuK\a
_diffrn_radiation_wavelength     1.54178
_diffrn_reflns_av_R_equivalents  0.0552
_diffrn_reflns_av_unetI/netI     0.0185
_diffrn_reflns_Laue_measured_fraction_full 0.999
_diffrn_reflns_Laue_measured_fraction_max 0.994
_diffrn_reflns_limit_h_max       9
_diffrn_reflns_limit_h_min       -9
_diffrn_reflns_limit_k_max       4
_diffrn_reflns_limit_k_min       -3
_diffrn_reflns_limit_l_max       27
_diffrn_reflns_limit_l_min       -27
_diffrn_reflns_number            25542
_diffrn_reflns_point_group_measured_fraction_full 0.999
_diffrn_reflns_point_group_measured_fraction_max 0.994
_diffrn_reflns_theta_full        67.679
_diffrn_reflns_theta_max         70.294
_diffrn_reflns_theta_min         3.970
_diffrn_source                   'Rotating-anode X-ray tube'
_diffrn_source_target            Cu
_diffrn_source_type              'Bruker Microstar/FR591 generator'
_exptl_absorpt_coefficient_mu    7.589
_exptl_absorpt_correction_T_max  0.7533
_exptl_absorpt_correction_T_min  0.4962
_exptl_absorpt_correction_type   multi-scan
_exptl_absorpt_process_details
;
SADABS-2012/1 (Bruker,2012) was used for absorption correction.
wR2(int) was 0.1298 before and 0.0730 after correction.
The Ratio of minimum to maximum transmission is 0.6587.
The \l/2 correction factor is 0.0015.
;
_exptl_crystal_colour            'clear light colourless'
_exptl_crystal_colour_lustre     clear
_exptl_crystal_colour_modifier   light
_exptl_crystal_colour_primary    colourless
_exptl_crystal_density_diffrn    1.820
_exptl_crystal_description       Block
_exptl_crystal_F_000             352
_exptl_crystal_size_max          0.35
_exptl_crystal_size_mid          0.25
_exptl_crystal_size_min          0.1
_exptl_special_details
;
X-ray crystallographic data for I were collected from a single crystal
sample, which was mounted on a loop fiber. Data were collected using
a Bruker microstar diffractometer equipped with a Platinum 135 CCD Detector,
a Helios optics and a Kappa goniometer. The crystal-to-detector distance 
was 4.0 cm, and the data collection was carried out in 512 x 512 pixel mode.
The initial unit cell parameters were determined by a least-squares fit
of the angular setting of strong reflections, collected by a 110.0 degree
scan in 110 frames over three different parts of the reciprocal space
;
_geom_special_details
;
 All esds (except the esd in the dihedral angle between two l.s. planes)
 are estimated using the full covariance matrix.  The cell esds are taken
 into account individually in the estimation of esds in distances, angles
 and torsion angles; correlations between esds in cell parameters are only
 used when they are defined by crystal symmetry.  An approximate (isotropic)
 treatment of cell esds is used for estimating esds involving l.s. planes.
;
_refine_diff_density_max         0.455
_refine_diff_density_min         -0.542
_refine_diff_density_rms         0.100
_refine_ls_extinction_method     none
_refine_ls_goodness_of_fit_ref   1.074
_refine_ls_hydrogen_treatment    constr
_refine_ls_matrix_type           full
_refine_ls_number_parameters     82
_refine_ls_number_reflns         1258
_refine_ls_number_restraints     0
_refine_ls_restrained_S_all      1.074
_refine_ls_R_factor_all          0.0306
_refine_ls_R_factor_gt           0.0304
_refine_ls_shift/su_max          0.000
_refine_ls_shift/su_mean         0.000
_refine_ls_structure_factor_coef Fsqd
_refine_ls_weighting_details
'w=1/[\s^2^(Fo^2^)+(0.0503P)^2^+1.0747P] where P=(Fo^2^+2Fc^2^)/3'
_refine_ls_weighting_scheme      calc
_refine_ls_wR_factor_gt          0.0831
_refine_ls_wR_factor_ref         0.0839
_refine_special_details
;
 ?
;
_reflns_Friedel_coverage         0.000
_reflns_number_gt                1250
_reflns_number_total             1258
_reflns_special_details
;
 Reflections were merged by SHELXL according to the crystal
 class for the calculation of statistics and refinement.
 
 _reflns_Friedel_fraction is defined as the number of unique
 Friedel pairs measured divided by the number that would be
 possible theoretically, ignoring centric projections and
 systematic absences.
;
_reflns_threshold_expression     'I > 2\s(I)'
_cod_data_source_file            cnphbr.cif
_cod_data_source_block           cnphbr
_cod_depositor_comments
;
The following automatic conversions were performed:

'_diffrn_radiation_probe' value 'X-ray' changed to 'x-ray' according
to the built-in table from CIF Core dictionary named 'cif_core.dic'
version 2.4.1 from 2010-06-29.

Automatic conversion script
Id: cif_fix_values 2827 2014-09-09 07:05:25Z andrius 
;
_cod_database_code               3500018
_cod_database_fobs_code          3500018
#BEGIN Tags that were not found in dictionaries:
_shelxl_version_number           2014-3
_shelx_space_group_comment
;
The symmetry employed for this shelxl refinement is uniquely defined
by the following loop, which should always be used as a source of
symmetry information in preference to the above space-group names.
They are only intended as comments.
;
_shelx_estimated_absorpt_t_max   0.517
_shelx_estimated_absorpt_t_min   0.176
_olex2_refinement_description
;
1. Fixed Uiso
 At 1.2 times of:
  All C(H) groups
2.a Aromatic/amide H refined with riding coordinates:
 C2(H2), C4(H4), C5(H5), C6(H6)
;
_shelx_res_file
;
TITL thier04 in P2(1)/n
CELL 1.54178 7.5336 3.9605 22.3029 90 93.1813 90
ZERR 4 0.0003 0.0002 0.0008 0 0.0014 0
LATT 1
SYMM 0.5-X,0.5+Y,0.5-Z
 
SFAC C H N Br
UNIT 28 16 4 4
 
L.S. 22
PLAN  4
SIZE 0.1 0.25 0.35
TEMP 23
BOND
MORE -1
BOND $H
CONF
fmap 2 53
acta
REM <HKL>E:/DOSSIERS/CCDC_Personal_Communication/OLEX2_CN_Ph_Br/thier04.hkl</H
REM KL>
 
WGHT    0.050300    1.074700
FVAR       0.22132
BR1   4    0.578357    0.267411    0.208013    11.00000    0.02257    0.02947 =
         0.02542    0.00475   -0.00366    0.00056
C1    1    0.378014    0.394122    0.157563    11.00000    0.01913    0.01896 =
         0.02048   -0.00376   -0.00080   -0.00018
C2    1    0.404764    0.561459    0.104463    11.00000    0.01506    0.02246 =
         0.02272   -0.00317    0.00255   -0.00181
AFIX  43
H2    2    0.518642    0.614551    0.093377    11.00000   -1.20000
AFIX   0
C3    1    0.254584    0.648422    0.067898    11.00000    0.02053    0.02039 =
         0.01910   -0.00441    0.00006   -0.00073
C4    1    0.083268    0.570495    0.084819    11.00000    0.01772    0.03168 =
         0.02354   -0.00450   -0.00282    0.00053
AFIX  43
H4    2   -0.015732    0.630980    0.060412    11.00000   -1.20000
AFIX   0
C5    1    0.063241    0.402222    0.138363    11.00000    0.01733    0.03674 =
         0.02848   -0.00488    0.00614   -0.00359
AFIX  43
H5    2   -0.050096    0.347653    0.149794    11.00000   -1.20000
AFIX   0
C6    1    0.209923    0.314200    0.175097    11.00000    0.02459    0.02687 =
         0.02128   -0.00271    0.00482   -0.00360
AFIX  43
H6    2    0.195636    0.202496    0.211190    11.00000   -1.20000
AFIX   0
C7    1    0.275483    0.820642    0.011599    11.00000    0.02133    0.02576 =
         0.02650   -0.00341   -0.00032   -0.00002
N1    3    0.286277    0.952363   -0.033463    11.00000    0.02687    0.03951 =
         0.02665    0.00507   -0.00388    0.00075
HKLF 4
 
REM  thier04 in P2(1)/n
REM R1 =  0.0304 for    1250 Fo > 4sig(Fo)  and  0.0306 for all    1258 data
REM     82 parameters refined using      0 restraints
 
END  
     
WGHT      0.0403      1.0460 

REM Highest difference peak  0.455,  deepest hole -0.542,  1-sigma level  0.100
Q1    1   0.4533  0.2856  0.1800  11.00000  0.05    0.46
Q2    1   0.7188  0.2805  0.2351  11.00000  0.05    0.41
Q3    1   0.5942  0.6196  0.1991  11.00000  0.05    0.40
Q4    1   0.6199  0.0805  0.1785  11.00000  0.05    0.37

REM The information below was added by Olex2.
REM
REM R1 = 0.0304 for 1250 Fo > 4sig(Fo) and 0.0306 for all 27848 data
REM n/a parameters refined using n/a restraints
REM Highest difference peak 0.46, deepest hole -0.54
REM Mean Shift 0, Max Shift 0.000.

REM +++ Tabular Listing of Refinement Information +++
REM R1_all = 0.0306
REM R1_gt = 0.0304
REM wR_ref = 0.0839
REM GOOF = 1.074
REM Shift_max = 0.000
REM Shift_mean = 0
REM Reflections_all = 27848
REM Reflections_gt = 1250
REM Parameters = n/a
REM Hole = -0.54
REM Peak = 0.46
REM Flack = n/a

;
_olex2_submission_special_instructions 'No special instructions were received'
#END Tags that were not found in dictionaries
loop_
_space_group_symop_operation_xyz
'x, y, z'
'-x+1/2, y+1/2, -z+1/2'
'-x, -y, -z'
'x-1/2, -y-1/2, z-1/2'
loop_
_atom_site_label
_atom_site_type_symbol
_atom_site_fract_x
_atom_site_fract_y
_atom_site_fract_z
_atom_site_U_iso_or_equiv
_atom_site_adp_type
_atom_site_occupancy
_atom_site_site_symmetry_order
_atom_site_calc_flag
_atom_site_refinement_flags_posn
Br1 Br 0.57836(4) 0.26741(7) 0.20801(2) 0.02601(16) Uani 1 1 d .
C1 C 0.3780(3) 0.3941(7) 0.15756(11) 0.0196(5) Uani 1 1 d .
C2 C 0.4048(3) 0.5615(7) 0.10446(11) 0.0200(5) Uani 1 1 d .
H2 H 0.5186 0.6146 0.0934 0.024 Uiso 1 1 calc R
C3 C 0.2546(3) 0.6484(7) 0.06790(11) 0.0200(5) Uani 1 1 d .
C4 C 0.0833(3) 0.5705(7) 0.08482(12) 0.0245(6) Uani 1 1 d .
H4 H -0.0157 0.6310 0.0604 0.029 Uiso 1 1 calc R
C5 C 0.0632(4) 0.4022(8) 0.13836(13) 0.0273(6) Uani 1 1 d .
H5 H -0.0501 0.3477 0.1498 0.033 Uiso 1 1 calc R
C6 C 0.2099(4) 0.3142(7) 0.17510(13) 0.0241(6) Uani 1 1 d .
H6 H 0.1956 0.2025 0.2112 0.029 Uiso 1 1 calc R
C7 C 0.2755(4) 0.8206(8) 0.01160(13) 0.0246(6) Uani 1 1 d .
N1 N 0.2863(3) 0.9524(7) -0.03346(11) 0.0312(6) Uani 1 1 d .
loop_
_atom_site_aniso_label
_atom_site_aniso_U_11
_atom_site_aniso_U_22
_atom_site_aniso_U_33
_atom_site_aniso_U_23
_atom_site_aniso_U_13
_atom_site_aniso_U_12
Br1 0.0226(2) 0.0295(2) 0.0254(2) 0.00475(10) -0.00366(14) 0.00056(10)
C1 0.0191(12) 0.0190(13) 0.0205(12) -0.0038(10) -0.0008(9) -0.0002(10)
C2 0.0151(11) 0.0225(13) 0.0227(12) -0.0032(10) 0.0025(9) -0.0018(9)
C3 0.0205(12) 0.0204(12) 0.0191(12) -0.0044(11) 0.0001(10) -0.0007(11)
C4 0.0177(12) 0.0317(15) 0.0235(13) -0.0045(11) -0.0028(10) 0.0005(11)
C5 0.0173(12) 0.0367(17) 0.0285(14) -0.0049(12) 0.0061(10) -0.0036(11)
C6 0.0246(14) 0.0269(13) 0.0213(13) -0.0027(11) 0.0048(11) -0.0036(11)
C7 0.0213(13) 0.0258(13) 0.0265(15) -0.0034(12) -0.0003(11) 0.0000(11)
N1 0.0269(12) 0.0395(15) 0.0267(13) 0.0051(11) -0.0039(9) 0.0007(11)
loop_
_atom_type_symbol
_atom_type_description
_atom_type_scat_dispersion_real
_atom_type_scat_dispersion_imag
_atom_type_scat_source
C C 0.0181 0.0091 'International Tables Vol C Tables 4.2.6.8 and 6.1.1.4'
H H 0.0000 0.0000 'International Tables Vol C Tables 4.2.6.8 and 6.1.1.4'
N N 0.0311 0.0180 'International Tables Vol C Tables 4.2.6.8 and 6.1.1.4'
Br Br -0.6763 1.2805 'International Tables Vol C Tables 4.2.6.8 and 6.1.1.4'
loop_
_geom_angle_atom_site_label_1
_geom_angle_atom_site_label_2
_geom_angle_atom_site_label_3
_geom_angle
C2 C1 Br1 119.05(19)
C2 C1 C6 122.1(2)
C6 C1 Br1 118.8(2)
C1 C2 H2 121.1
C1 C2 C3 117.7(2)
C3 C2 H2 121.1
C2 C3 C7 119.9(2)
C4 C3 C2 121.1(2)
C4 C3 C7 119.0(2)
C3 C4 H4 120.5
C5 C4 C3 119.1(2)
C5 C4 H4 120.5
C4 C5 H5 119.6
C4 C5 C6 120.7(2)
C6 C5 H5 119.6
C1 C6 C5 119.3(3)
C1 C6 H6 120.4
C5 C6 H6 120.4
N1 C7 C3 177.6(3)
loop_
_geom_bond_atom_site_label_1
_geom_bond_atom_site_label_2
_geom_bond_distance
Br1 C1 1.899(2)
C1 C2 1.382(4)
C1 C6 1.383(4)
C2 H2 0.9300
C2 C3 1.400(4)
C3 C4 1.399(4)
C3 C7 1.445(4)
C4 H4 0.9300
C4 C5 1.383(4)
C5 H5 0.9300
C5 C6 1.383(4)
C6 H6 0.9300
C7 N1 1.139(4)
loop_
_geom_torsion_atom_site_label_1
_geom_torsion_atom_site_label_2
_geom_torsion_atom_site_label_3
_geom_torsion_atom_site_label_4
_geom_torsion
Br1 C1 C2 C3 179.33(19)
Br1 C1 C6 C5 -179.3(2)
C1 C2 C3 C4 0.4(4)
C1 C2 C3 C7 -179.4(2)
C2 C1 C6 C5 0.4(4)
C2 C3 C4 C5 -0.6(4)
C3 C4 C5 C6 0.6(4)
C4 C5 C6 C1 -0.5(4)
C6 C1 C2 C3 -0.3(4)
C7 C3 C4 C5 179.3(3)
loop_
_refln_index_h
_refln_index_k
_refln_index_l
_refln_F_squared_meas
_refln_F_squared_sigma
1 0 0 0.01 0.03
1 0 0 0.11 0.04
1 0 0 0.17 0.04
1 0 0 0.16 0.03
1 0 0 0.06 0.03
-1 0 0 -0.03 0.03
-1 0 0 -0.04 0.03
-1 0 0 -0.04 0.03
-1 0 0 0.06 0.03
1 0 0 -0.01 0.02
-2 0 0 39.52 2.83
-2 0 0 38.57 2.84
-2 0 0 40.77 2.9
-2 0 0 45.55 3.01
2 0 0 33.21 2.97
2 0 0 40.86 3.26
2 0 0 39.9 3.15
2 0 0 38.54 3.3
2 0 0 42.04 2.94
2 0 0 36.98 3.35
-2 0 0 38.74 2.58
-2 0 0 39.03 2.94
-2 0 0 38.35 2.93
-2 0 0 38.85 2.87
2 0 0 44.29 3.07
3 0 0 -0.39 0.07
3 0 0 -0.21 0.08
3 0 0 -0.19 0.11
-3 0 0 -0.53 0.07
3 0 0 -0.47 0.06
-3 0 0 -0.39 0.08
3 0 0 -0.27 0.09
-3 0 0 -0.39 0.06
-3 0 0 -0.53 0.06
3 0 0 -0.4 0.04
-3 0 0 -0.56 0.05
-3 0 0 -0.48 0.06
3 0 0 -0.52 0.06
-3 0 0 -0.51 0.07
-4 0 0 25.87 2.03
4 0 0 23.25 2.19
4 0 0 24.07 2.1
4 0 0 27.62 2.2
-4 0 0 23.59 1.71
-4 0 0 25.52 1.98
-4 0 0 27.14 1.94
-4 0 0 24.95 1.91
4 0 0 29.54 2.07
-4 0 0 26.73 1.9
-4 0 0 23.33 1.95
5 0 0 0.21 0.12
5 0 0 0.03 0.1
-5 0 0 -0.02 0.07
-5 0 0 0.08 0.12
-5 0 0 0.09 0.12
5 0 0 0.17 0.13
5 0 0 0.13 0.12
5 0 0 0.26 0.12
-5 0 0 0.02 0.08
-5 0 0 0.2 0.12
5 0 0 0.01 0.12
-5 0 0 0.09 0.08
-5 0 0 0.12 0.1
5 0 0 0.3 0.12
5 0 0 0.1 0.12
5 0 0 0.18 0.11
-5 0 0 0.13 0.11
5 0 0 0.12 0.13
5 0 0 0.06 0.11
5 0 0 0.49 0.16
6 0 0 344.46 23.04
-6 0 0 338.8 27.14
-6 0 0 375.91 25.58
-6 0 0 317.6 26.61
6 0 0 354.48 22.19
6 0 0 323.5 21.63
6 0 0 396.23 23.81
6 0 0 345.27 28.55
-6 0 0 327.23 25.57
6 0 0 394.51 23.02
6 0 0 381.39 27.74
6 0 0 394.6 23.61
-6 0 0 369.64 25.88
6 0 0 382.28 23.25
6 0 0 391.45 29.6
7 0 0 0.16 0.12
7 0 0 0 0.14
7 0 0 0.1 0.12
7 0 0 0.1 0.14
7 0 0 0.12 0.14
7 0 0 -0.08 0.12
7 0 0 0.02 0.12
-8 0 0 42.46 2.95
-8 0 0 43.08 2.58
-8 0 0 40.31 2.85
8 0 0 39.3 2.67
8 0 0 40.59 2.68
8 0 0 42.09 2.77
-8 0 0 36.97 2.62
-8 0 0 38.83 2.47
8 0 0 36.51 2.67
8 0 0 40.76 2.74
9 0 0 0.07 0.11
-9 0 0 0.21 0.12
9 0 0 0.08 0.09
-9 0 0 0.09 0.12
9 0 0 0.09 0.11
-9 0 0 -0.05 0.11
0 -1 0 0.07 0.07
0 -1 0 -0.12 0.06
0 -1 0 -0.27 0.06
-1 -1 0 0.12 0.06
-1 -1 0 0.17 0.05
1 -1 0 -0.02 0.05
-1 -1 0 0.02 0.05
-1 -1 0 0.02 0.05
1 -1 0 0.01 0.04
1 -1 0 0.13 0.04
1 -1 0 0.15 0.03
1 -1 0 0.06 0.06
1 -1 0 0.06 0.05
1 -1 0 0.21 0.06
-1 -1 0 0.29 0.05
-1 1 0 0.21 0.04
-1 1 0 0.03 0.06
-1 1 0 0.03 0.05
-1 1 0 0.08 0.05
-2 -1 0 415.62 30
-2 -1 0 433.46 30.9
2 -1 0 456.52 33.49
-2 -1 0 442.89 30.32
-2 -1 0 406.19 29.25
2 -1 0 420.95 31.17
2 -1 0 459.36 34.67
2 -1 0 450.31 35.15
2 -1 0 428.34 31.8
-2 -1 0 426.13 27.47
2 -1 0 434.95 32.48
2 -1 0 429.94 35.79
-2 -1 0 445.07 29.96
-2 1 0 372.68 31.22
-2 1 0 443.46 30.34
-2 1 0 371.11 31.17
-2 1 0 425.61 29.97
2 1 0 454.3 34.66
-2 1 0 392.7 31.82
-3 -1 0 -0.03 0.07
-3 -1 0 -0.02 0.07
3 -1 0 0.17 0.1
-3 -1 0 -0.03 0.08
-3 -1 0 -0.07 0.08
-3 -1 0 -0.05 0.08
3 -1 0 0.04 0.07
-3 -1 0 0.19 0.12
3 1 0 0.25 0.11
3 1 0 -0.01 0.07
3 1 0 0.27 0.11
-3 1 0 -0.01 0.1
-4 -1 0 176.1 11.45
4 -1 0 157.58 12.1
4 -1 0 154.16 11.88
-4 -1 0 175.86 12.15
-4 -1 0 164.1 10.46
-4 -1 0 176.58 11.45
4 -1 0 177.67 12.79
4 -1 0 171.13 13.64
-4 -1 0 172.57 11.58
-4 -1 0 163.72 11.92
4 -1 0 170.62 13.42
4 -1 0 177.52 12.39
4 -1 0 180.9 13.23
4 1 0 140.41 10.55
-4 1 0 170.72 11.49
-4 1 0 155.86 12.17
4 1 0 143.52 10.15
4 1 0 142.15 10.39
-4 1 0 176.21 11.63
4 1 0 138.17 10.64
4 1 0 157.57 13.21
-4 1 0 133.78 9.68
-4 1 0 177.54 11.48
4 1 0 146.95 10.34
4 1 0 138.05 9.92
-5 -1 0 20.25 1.52
5 -1 0 19.95 1.74
-5 -1 0 18.59 1.53
-5 -1 0 20.24 1.6
5 -1 0 20.08 1.67
-5 -1 0 19.95 1.56
-5 -1 0 18.17 1.47
5 -1 0 20.03 1.6
5 -1 0 20.54 1.73
-5 -1 0 20.77 1.52
5 -1 0 18.32 1.74
-5 1 0 19.63 1.33
-5 1 0 21.38 1.57
5 1 0 19.17 1.41
5 1 0 16.86 1.26
-5 1 0 17.67 1.27
5 1 0 18.73 1.38
5 1 0 18.74 1.35
5 1 0 18.66 1.38
5 1 0 17.02 1.69
-5 1 0 21.97 1.58
-5 1 0 18.66 1.61
-5 1 0 19.91 1.51
5 1 0 18.11 1.28
5 1 0 18.85 1.38
5 1 0 17.98 1.3
5 1 0 16.45 1.3
-5 1 0 19.25 1.28
-5 1 0 17.58 1.25
-6 -1 0 38.15 2.73
-6 -1 0 29.7 2.8
6 -1 0 35.53 3.14
6 -1 0 32.36 2.28
-6 -1 0 35.91 2.83
-6 -1 0 32.14 2.8
6 -1 0 32.14 3.15
-6 -1 0 36.37 2.9
6 -1 0 36.8 2.43
6 -1 0 34.01 2.91
-6 -1 0 31.28 2.67
-6 -1 0 35.1 2.74
6 1 0 37.75 2.47
-6 1 0 33.73 2.28
-6 1 0 37.74 2.34
-6 1 0 34.59 2.9
-6 1 0 41.02 2.8
6 1 0 36.67 2.48
-6 1 0 39.26 2.39
6 1 0 36.16 2.39
6 1 0 37.24 2.53
-6 1 0 36.79 2.29
-6 1 0 39.02 2.45
6 1 0 37.58 2.36
-6 1 0 37.57 2.8
-6 1 0 39.44 2.66
6 1 0 39.59 2.57
6 1 0 39.28 2.5
-6 1 0 38.83 2.73
7 -1 0 5.86 0.51
7 -1 0 6.12 0.53
7 -1 0 5.44 0.49
7 -1 0 5.51 0.52
7 -1 0 5.19 0.46
7 -1 0 6.09 0.54
7 1 0 5.85 0.56
-7 1 0 5.32 0.51
7 1 0 5.73 0.49
7 1 0 5.16 0.52
7 1 0 5.15 0.54
7 1 0 5.81 0.53
-7 1 0 5.45 0.48
7 1 0 5.32 0.55
-7 1 0 5.99 0.61
-7 1 0 5.55 0.53
7 1 0 5.01 0.47
-7 1 0 6.13 0.61
-7 1 0 5.82 0.55
8 -1 0 67.83 4.2
8 -1 0 60.77 4.04
8 -1 0 64.07 4.05
8 -1 0 52.54 3.76
8 -1 0 62.93 4.13
8 1 0 65.5 4.1
-8 1 0 54.34 3.84
8 1 0 69.52 4.18
-8 1 0 68.91 4.48
8 1 0 55.96 3.88
-8 1 0 65.41 4.35
8 1 0 63.91 4.21
-8 1 0 63.19 3.89
8 1 0 61.02 4.06
8 1 0 56.17 4.03
-8 1 0 63.57 4.02
0 -2 0 226.97 21.08
0 -2 0 280.55 20.07
0 -2 0 273.36 22.56
0 -2 0 284.27 19.73
0 -2 0 262.99 22.15
0 -2 0 284.56 18.5
-1 -2 0 1.1 0.17
1 -2 0 1.44 0.22
1 -2 0 1.16 0.18
1 -2 0 1.42 0.24
-1 -2 0 1.07 0.17
-1 -2 0 1.44 0.2
1 -2 0 0.97 0.15
1 -2 0 1.51 0.22
-1 -2 0 1.31 0.18
-1 -2 0 1.45 0.23
-1 -2 0 1.13 0.16
1 -2 0 1.23 0.22
1 -2 0 1.63 0.25
-2 -2 0 40.8 2.56
-2 -2 0 43.23 2.81
2 -2 0 44.48 3
2 -2 0 41.12 3.28
2 -2 0 41.01 3.35
2 -2 0 37.04 3.18
-2 -2 0 40.11 2.81
-2 -2 0 37.45 2.69
2 -2 0 39.61 3.1
-2 -2 0 40.82 2.84
2 -2 0 44.39 2.95
-2 -2 0 39.54 2.86
-2 2 0 34.39 2.78
2 2 0 38.28 2.44
2 2 0 39.03 2.25
2 2 0 35.41 2.61
2 2 0 38.6 2.26
2 2 0 43.38 2.78
2 2 0 37.24 2.85
2 2 0 37.18 2.55
2 2 0 36.85 2.49
-2 2 0 34.59 2.5
-2 2 0 35.41 2.7
-2 2 0 36.53 2.25
2 2 0 34.14 2.58
2 2 0 36.23 2.49
-2 2 0 36.82 2.49
2 2 0 34.69 2.54
2 2 0 39.22 2.54
2 2 0 39.7 2.42
2 2 0 37.84 2.58
2 2 0 35.97 2.45
2 2 0 38.87 2.46
2 2 0 36.22 2.81
2 2 0 38.43 2.81
-2 2 0 38.38 2.39
-2 2 0 35.09 2.41
3 -2 0 17.81 1.57
3 -2 0 19.25 1.55
-3 -2 0 16.99 1.39
3 -2 0 20.19 1.66
3 -2 0 20.78 1.48
-3 -2 0 20.34 1.51
-3 -2 0 18.93 1.4
-3 -2 0 19.35 1.42
3 -2 0 19.97 1.5
3 -2 0 19.02 1.68
-3 -2 0 19.12 1.41
-3 -2 0 18.52 1.27
-3 2 0 17.78 1.25
3 2 0 19.04 1.4
-3 2 0 17.28 1.43
3 2 0 16.24 1.18
-3 2 0 17.74 1.2
3 2 0 17.33 1.33
3 2 0 18.95 1.27
-3 2 0 17.47 1.5
3 2 0 18.12 1.38
-3 2 0 17.66 1.22
-3 2 0 17.18 1.18
-3 2 0 16.13 1.23
3 2 0 18.7 1.41
3 2 0 17.77 1.15
3 2 0 16.7 1.17
-3 2 0 16.91 1.38
3 2 0 19.73 1.24
3 2 0 17.28 1.28
3 2 0 16.6 1.11
3 2 0 17.89 1.17
3 2 0 17.87 1.22
3 2 0 16.75 1.28
3 2 0 17.07 1.09
3 2 0 17.37 1.1
3 2 0 18.82 1.24
3 2 0 18.6 1.3
-3 2 0 17.63 1.12
-3 2 0 15.49 1.18
3 2 0 17.36 1.2
-3 2 0 16.46 1.26
3 2 0 18.06 1.25
3 2 0 19.76 1.29
3 2 0 17.75 1.19
3 2 0 16.39 1.21
3 2 0 18.72 1.32
3 2 0 18.11 1.23
-4 -2 0 7 0.67
4 -2 0 7.03 0.71
4 -2 0 7.56 0.79
4 -2 0 7.6 0.77
4 -2 0 6.81 0.68
4 -2 0 6.6 0.66
-4 -2 0 7.22 0.71
-4 -2 0 7.91 0.69
-4 -2 0 6.47 0.68
-4 -2 0 7.42 0.65
4 -2 0 6.54 0.62
4 -2 0 6.95 0.71
-4 2 0 6.79 0.57
-4 2 0 5.81 0.57
-4 2 0 6.35 0.62
4 2 0 6.48 0.57
4 2 0 7.05 0.58
4 2 0 6.71 0.57
-4 2 0 6.64 0.52
4 2 0 6.31 0.65
4 2 0 7.25 0.56
4 2 0 7.9 0.59
4 2 0 6.54 0.62
4 2 0 6.96 0.64
4 2 0 6.93 0.62
-4 2 0 7.53 0.73
-4 2 0 7.58 0.71
-4 2 0 7.2 0.59
4 2 0 8.49 0.68
-4 2 0 7.04 0.59
-4 2 0 6.91 0.75
-4 2 0 6.98 0.72
-4 2 0 6.73 0.62
4 2 0 6.82 0.58
4 2 0 6.69 0.61
4 2 0 6.05 0.62
5 -2 0 3.52 0.43
-5 -2 0 3.56 0.47
5 -2 0 2.86 0.41
5 -2 0 3.3 0.5
5 -2 0 4.06 0.53
-5 -2 0 3.82 0.49
-5 -2 0 3.78 0.49
5 -2 0 3.73 0.49
-5 -2 0 3.31 0.44
-5 -2 0 3.71 0.47
-5 -2 0 3.66 0.49
5 -2 0 3.32 0.51
-5 2 0 4.12 0.48
-5 2 0 4.18 0.52
5 2 0 3.8 0.43
5 2 0 3.83 0.5
-5 2 0 3.95 0.41
5 2 0 3.83 0.38
5 2 0 3.56 0.36
5 2 0 3.48 0.39
-5 2 0 4.06 0.47
-5 2 0 4.34 0.59
5 2 0 2.61 0.44
5 2 0 3.54 0.46
-5 2 0 3.93 0.41
5 2 0 3.78 0.39
5 2 0 3.49 0.55
-5 2 0 3.89 0.49
-5 2 0 3.94 0.53
-5 2 0 4.06 0.43
5 2 0 3.92 0.39
6 2 0 79.15 5.32
-6 2 0 89.23 6.13
-6 2 0 89.4 5.29
-6 2 0 82.71 5.19
6 2 0 81.35 5.54
6 2 0 83.58 5.32
-6 2 0 86.53 5.5
6 2 0 82.61 5.57
6 2 0 80.88 5.5
6 2 0 83.17 5.59
6 2 0 82.62 5.76
6 2 0 84.88 5.43
-6 2 0 85.56 5.32
6 2 0 86.21 5.7
-6 2 0 90.61 5.96
7 -2 0 3.95 0.36
7 -2 0 3.38 0.37
7 -2 0 3.98 0.4
7 2 0 3.93 0.42
7 2 0 3.98 0.38
-7 2 0 3.81 0.41
7 2 0 4.1 0.44
-7 2 0 4.69 0.52
7 2 0 4.17 0.46
7 2 0 3.65 0.37
7 2 0 4.25 0.47
-7 2 0 4.25 0.5
-7 2 0 4.24 0.45
-7 2 0 4.15 0.41
8 -2 0 18.85 1.19
8 -2 0 15.5 1.09
8 -2 0 19.04 1.2
8 -2 0 17.27 1.22
-8 2 0 15.92 1.13
-8 2 0 17.33 1.33
8 2 0 16.35 1.14
8 2 0 17.84 1.21
-8 2 0 20.19 1.31
-8 2 0 18.41 1.2
8 2 0 17.85 1.24
8 2 0 17.66 1.25
8 2 0 14.82 1.18
0 -3 0 0.3 0.19
0 -3 0 0.11 0.14
0 -3 0 0.14 0.14
0 -3 0 0.03 0.17
0 -3 0 0.6 0.21
0 3 0 0.15 0.17
0 3 0 0.14 0.14
0 3 0 -0.13 0.19
0 3 0 0.02 0.13
0 3 0 0.77 0.21
0 3 0 0.26 0.2
0 3 0 0.05 0.14
0 3 0 0.24 0.15
0 3 0 0.1 0.15
0 3 0 0.74 0.19
0 3 0 0.15 0.13
0 3 0 0.13 0.17
0 3 0 0.16 0.15
0 3 0 0.29 0.17
0 3 0 1.12 0.27
0 3 0 0.25 0.17
0 3 0 0.36 0.22
0 3 0 0.03 0.19
0 3 0 0.06 0.12
0 3 0 0.49 0.21
0 3 0 0.01 0.16
0 3 0 0.12 0.12
0 3 0 -0.03 0.15
-1 -3 0 10.45 0.96
1 -3 0 11.23 1
-1 -3 0 10.38 0.95
-1 -3 0 9.79 0.94
1 -3 0 10.23 1.08
-1 -3 0 9.61 0.88
1 -3 0 10.54 0.98
1 -3 0 9.85 0.96
1 -3 0 10.85 0.93
-1 -3 0 10.81 0.86
-1 3 0 10.78 0.76
1 3 0 11.13 0.83
1 3 0 9.87 0.85
-1 3 0 10.34 0.8
1 3 0 11.49 0.8
1 3 0 12.15 0.8
1 3 0 11.26 0.93
1 3 0 9.63 0.83
1 3 0 10.97 0.77
-1 3 0 11.27 0.8
-1 3 0 11.27 0.83
-1 3 0 8.62 0.8
-1 3 0 10.22 0.77
1 3 0 10.45 0.88
1 3 0 11.44 0.75
1 3 0 10.32 0.81
1 3 0 11.15 0.81
-1 3 0 9.6 0.88
-1 3 0 11.27 0.77
-1 3 0 11.15 0.92
1 3 0 10.17 0.78
-1 3 0 10.34 0.91
1 3 0 10.55 0.84
1 3 0 10.37 0.83
-1 3 0 11.23 0.82
-1 3 0 10.58 0.8
1 3 0 10.97 0.81
1 3 0 11.25 0.81
-1 3 0 9.81 0.72
-1 3 0 10.08 0.83
-1 3 0 11.7 0.84
-1 3 0 10.29 0.9
1 3 0 11.16 0.93
-1 3 0 10.9 0.86
1 3 0 11.83 0.83
1 3 0 10.56 0.84
1 3 0 11.3 0.92
1 3 0 13.31 0.85
1 3 0 10.69 0.86
1 3 0 9.68 0.79
-1 3 0 11.51 0.95
1 3 0 10.68 0.92
1 3 0 10.44 0.85
-1 3 0 9.88 0.77
2 -3 0 110.37 7.48
2 -3 0 98.24 8.57
-2 -3 0 92.95 7.19
2 -3 0 102.16 7.05
-2 -3 0 97.81 7.19
-2 -3 0 96.9 7.27
2 -3 0 101.83 7.64
-2 -3 0 94.07 6.57
2 -3 0 87.2 8.37
2 -3 0 100.62 7.51
2 3 0 98.9 6.07
-2 3 0 102.42 6.38
2 3 0 111.64 6.39
2 3 0 107.31 6.12
2 3 0 89.85 6.13
2 3 0 102.39 6.15
2 3 0 99.09 6.36
2 3 0 105.4 6.35
2 3 0 101.68 6.5
-2 3 0 104.77 6.13
-2 3 0 95.01 6.29
-2 3 0 99.97 6.92
-2 3 0 99.08 5.77
-2 3 0 102.72 6.43
2 3 0 99.38 6.54
-2 3 0 103.58 6.38
2 3 0 90.32 6.62
2 3 0 101.39 5.74
2 3 0 102.94 6.07
-2 3 0 101.07 6.12
2 3 0 93.92 6.46
2 3 0 101.29 7.21
-2 3 0 86.18 6
-2 3 0 103.21 6.21
2 3 0 107.52 7.33
2 3 0 91.59 6.68
2 3 0 94.63 6.47
-2 3 0 107.4 7.15
2 3 0 102.9 6.39
2 3 0 103.01 6.32
2 3 0 103.77 6.62
2 3 0 105.19 7.24
2 3 0 99.09 6.25
2 3 0 100.31 6.31
-2 3 0 94.75 6.2
2 3 0 99.92 6.86
3 -3 0 0.35 0.24
3 -3 0 0.34 0.22
3 -3 0 0.36 0.25
3 -3 0 0.42 0.23
-3 -3 0 0.56 0.27
3 -3 0 0.37 0.22
-3 -3 0 0.74 0.28
-3 -3 0 0.21 0.23
3 -3 0 0.45 0.3
-3 -3 0 0.28 0.22
-3 3 0 -0.05 0.13
3 3 0 0.45 0.19
-3 3 0 0.49 0.29
3 3 0 0.65 0.21
3 3 0 0.67 0.27
3 3 0 0.29 0.23
3 3 0 0.69 0.21
-3 3 0 0.45 0.18
3 3 0 0.63 0.21
3 3 0 0.34 0.16
-3 3 0 0.43 0.27
3 3 0 0.55 0.18
3 3 0 0.47 0.18
-3 3 0 0.66 0.28
3 3 0 0.22 0.2
-3 3 0 0.45 0.22
3 3 0 0.34 0.22
3 3 0 0.56 0.19
3 3 0 0.5 0.17
3 3 0 0.55 0.21
3 3 0 0.78 0.22
-3 3 0 0.41 0.22
3 3 0 1.18 0.3
-3 3 0 0.47 0.17
-3 3 0 0.72 0.24
3 3 0 0.16 0.14
3 3 0 0.56 0.22
3 3 0 0.63 0.21
3 3 0 0.34 0.19
4 3 0 78.32 4.79
-4 3 0 73.96 4.75
-4 3 0 75.26 4.39
4 3 0 73.71 4.77
-4 3 0 73.45 4.85
4 3 0 69.53 5.09
4 3 0 65.58 5.12
4 3 0 81.33 4.82
4 3 0 81.94 5.05
4 3 0 78.93 4.95
-4 3 0 77.1 4.95
4 3 0 76.97 5.49
4 3 0 78.82 5.03
-4 3 0 77.66 5.34
4 3 0 78.2 4.88
-4 3 0 74.71 4.75
4 3 0 67.07 4.8
-4 3 0 76.71 4.68
4 3 0 79.35 5.55
-4 3 0 73.62 5.49
4 3 0 64.56 4.93
4 3 0 78.21 5.46
5 3 0 9.37 0.81
5 3 0 9.69 0.86
5 3 0 9.93 0.84
-5 3 0 8.9 0.92
5 3 0 9.93 0.77
-5 3 0 10.93 0.96
5 3 0 7.87 0.84
-5 3 0 9.65 0.79
-5 3 0 9.23 0.84
5 3 0 10.01 0.74
-5 3 0 9.05 0.76
5 3 0 10.36 0.78
5 3 0 9.76 0.77
5 3 0 9.47 0.76
-5 3 0 9.87 0.76
5 3 0 8.14 0.79
-5 3 0 9.6 0.77
6 3 0 0.03 0.2
6 3 0 0.22 0.18
-6 3 0 0.51 0.17
6 3 0 0.29 0.13
-6 3 0 0.33 0.2
6 3 0 0.22 0.13
-6 3 0 0.31 0.24
6 3 0 0.5 0.22
6 3 0 0.56 0.2
-6 3 0 0.46 0.19
6 3 0 0.48 0.18
6 3 0 0.26 0.14
-6 3 0 0.11 0.19
7 -3 0 1.08 0.17
7 -3 0 1.4 0.2
7 -3 0 0.76 0.13
-7 3 0 0.96 0.18
-7 3 0 1.23 0.21
7 3 0 0.86 0.17
7 3 0 0.63 0.18
7 3 0 0.87 0.16
7 3 0 0.98 0.2
-7 3 0 1.28 0.23
0 4 0 28.06 2.14
0 4 0 32.65 2.01
0 4 0 31.27 2
0 4 0 26.81 1.94
0 4 0 31.68 2.28
0 4 0 28.51 1.92
0 4 0 29.59 1.83
0 4 0 25.76 2.23
0 4 0 28 2.05
0 4 0 30.51 1.95
0 4 0 30.78 1.92
0 4 0 29.86 2.02
0 4 0 28.48 2.2
0 4 0 29.18 2.29
0 4 0 30.41 2.01
1 4 0 0.97 0.22
1 4 0 0.85 0.24
1 4 0 1.07 0.23
1 4 0 1.06 0.26
-1 4 0 1.07 0.26
-1 4 0 0.78 0.24
1 4 0 0.88 0.23
-1 4 0 1.42 0.24
-1 4 0 1 0.31
1 4 0 0.88 0.2
1 4 0 1.01 0.23
-1 4 0 1.01 0.23
1 4 0 0.57 0.21
1 4 0 0.74 0.24
-1 4 0 0.65 0.25
1 4 0 0.74 0.2
1 4 0 0.85 0.25
-1 4 0 1.13 0.23
1 4 0 1.23 0.26
-1 4 0 0.91 0.26
-1 4 0 1.15 0.23
-1 4 0 1.35 0.29
-1 4 0 0.89 0.26
-1 4 0 1.24 0.29
2 4 0 19.61 1.31
-2 4 0 18.21 1.2
-2 4 0 16.14 1.2
2 4 0 16.52 1.22
2 4 0 19.32 1.42
2 4 0 16.34 1.23
2 4 0 18.6 1.12
2 4 0 16.24 1.25
-2 4 0 17.12 1.29
-2 4 0 14.79 1.19
2 4 0 17.38 1.39
-2 4 0 17.16 1.39
-2 4 0 18.92 1.38
2 4 0 20.71 1.43
-2 4 0 17.38 1.24
2 4 0 15.96 1.26
2 4 0 17.73 1.22
-2 4 0 15.98 1.12
2 4 0 15.61 1.2
2 4 0 16.47 1.22
2 4 0 16.73 1.16
-2 4 0 16.43 1.22
-2 4 0 17.25 1.26
2 4 0 17.48 1.23
2 4 0 16.6 1.18
3 4 0 6.53 0.55
3 4 0 6.93 0.65
3 4 0 6.66 0.57
-3 4 0 5.39 0.65
3 4 0 6.92 0.6
-3 4 0 6.63 0.58
3 4 0 7.27 0.57
3 4 0 6 0.58
3 4 0 6.34 0.6
3 4 0 7.27 0.58
-3 4 0 6.73 0.61
3 4 0 6.15 0.63
-3 4 0 6.76 0.6
3 4 0 8.02 0.66
3 4 0 5.63 0.61
-3 4 0 6.88 0.65
3 4 0 7.5 0.65
-3 4 0 7.39 0.56
3 4 0 6.38 0.59
-3 4 0 7.6 0.55
-3 4 0 7.5 0.7
-4 4 0 3.85 0.37
4 4 0 4.04 0.44
4 4 0 4.85 0.42
4 4 0 4.6 0.43
4 4 0 4.58 0.41
-4 4 0 3.97 0.49
-4 4 0 4.97 0.43
4 4 0 4.95 0.45
-4 4 0 4.64 0.45
4 4 0 4.44 0.45
-4 4 0 4.99 0.48
4 4 0 4.09 0.42
4 4 0 4.49 0.43
-4 4 0 4.37 0.42
-5 4 0 1.47 0.22
5 4 0 1.25 0.2
5 4 0 1.27 0.19
-5 4 0 1.45 0.24
5 4 0 1.07 0.18
-5 4 0 1.22 0.19
5 4 0 1.29 0.21
9 0 -1 12.82 0.99
9 0 -1 14.95 0.98
-9 0 1 15.27 1.08
9 0 -1 14.05 1.01
-9 0 1 13.57 1.04
-9 0 1 13.42 0.94
8 0 -1 0.07 0.13
-8 0 1 0.27 0.21
8 0 -1 0.08 0.09
-8 0 1 0.25 0.15
8 0 -1 0.47 0.16
-8 0 1 0.14 0.14
8 0 -1 0.06 0.13
8 0 -1 0.09 0.12
-8 0 1 0.09 0.14
8 0 -1 0.53 0.19
-8 0 1 0.01 0.17
-8 0 1 0.11 0.13
7 0 -1 25.79 1.73
7 0 -1 25.39 1.7
7 0 -1 21.86 1.64
7 0 -1 22.51 1.64
7 0 -1 21.6 1.53
7 0 -1 24.05 1.66
6 0 -1 0.37 0.14
-6 0 1 0.21 0.16
6 0 -1 0.21 0.18
-6 0 1 0.1 0.13
6 0 -1 0.42 0.19
6 0 -1 0.35 0.14
6 0 -1 0.32 0.16
6 0 -1 0.34 0.19
-6 0 1 0.25 0.19
-6 0 1 0.01 0.12
-6 0 1 0.22 0.17
6 0 -1 0.43 0.14
6 0 -1 0.35 0.15
-6 0 1 0.16 0.16
6 0 -1 0.44 0.19
6 0 -1 0.08 0.1
5 0 -1 45.68 2.99
-5 0 1 49.67 3.69
5 0 -1 48.05 3.18
5 0 -1 50.27 3.94
5 0 -1 43.37 4.1
5 0 -1 53.02 4.11
5 0 -1 46.7 3.19
-5 0 1 45.48 3.65
5 0 -1 50.03 3.29
5 0 -1 47.09 3.25
-5 0 1 51.27 3.59
5 0 -1 54 3.85
5 0 -1 47.32 3.18
5 0 -1 41.92 3.03
-5 0 1 52.41 3.56
5 0 -1 43.86 3.01
-5 0 1 52.94 3.78
-5 0 1 51.17 3.53
-4 0 1 -0.01 0.06
4 0 -1 0.06 0.08
4 0 -1 0.03 0.08
-4 0 1 -0.01 0.07
4 0 -1 -0.02 0.04
4 0 -1 -0.03 0.03
-4 0 1 -0.03 0.06
-4 0 1 0.05 0.09
-4 0 1 0.04 0.07
4 0 -1 0.08 0.08
-4 0 1 0.05 0.08
4 0 -1 0.14 0.1
-4 0 1 0.18 0.07
-4 0 1 0.02 0.08
-3 0 1 149.48 9.98
-3 0 1 142.2 11.34
3 0 -1 154.27 12.18
3 0 -1 149.47 12.77
3 0 -1 138.98 12.98
3 0 -1 134.54 11.52
3 0 -1 167.32 12.62
-3 0 1 160.96 11.04
-3 0 1 158.48 10.91
3 0 -1 175.32 11.83
-3 0 1 154.89 11.59
-3 0 1 153.46 11.37
-3 0 1 167.35 10.92
2 0 -1 -0.32 0.06
-2 0 1 -0.53 0.05
-2 0 1 -0.5 0.06
2 0 -1 -0.53 0.04
2 0 -1 -0.5 0.04
2 0 -1 -0.42 0.05
2 0 -1 -0.52 0.04
-2 0 1 -0.48 0.06
2 0 -1 -0.53 0.02
-2 0 1 -0.52 0.04
-2 0 1 -0.45 0.04
-2 0 1 -0.52 0.04
-2 0 1 -0.51 0.05
2 0 -1 -0.54 0.04
-1 0 1 41.5 3.2
1 0 -1 38.94 3.1
1 0 -1 47.02 3.27
1 0 -1 41.26 3.53
-1 0 1 44.85 3.15
-1 0 1 43.11 3.14
-1 0 1 39.95 3.05
1 0 -1 49.08 3.49
-1 0 1 42.54 2.76
1 0 -1 43.64 3.37
1 0 -1 40.3 3.13
-1 0 1 41.86 3.02
-1 0 1 41.71 3.02
1 0 -1 41.81 3.19
1 0 -1 41.84 3.59
0 0 1 -0.22 0.01
0 0 -1 -0.23 0.01
0 0 -1 -0.19 0.01
0 0 1 -0.23 0.01
0 0 -1 -0.23 0.01
0 0 -1 -0.22 0.01
0 0 1 -0.22 0.01
0 0 1 -0.22 0.01
0 0 1 -0.23 0.01
0 0 -1 -0.23 0.01
0 0 -1 -0.23 0.01
0 0 -1 -0.22 0.01
0 0 -1 -0.23 0.01
0 0 -1 -0.19 0.01
0 0 -1 -0.24 0.01
0 0 1 -0.23 0.01
0 0 -1 -0.19 0.01
0 0 1 -0.22 0.01
0 0 1 -0.21 0.01
0 0 -1 -0.22 0.01
0 0 -1 -0.22 0.01
0 0 1 -0.19 0.01
0 0 -1 -0.23 0.01
0 0 1 -0.23 0.01
0 0 1 -0.22 0.01
0 0 1 -0.24 0.01
0 0 1 -0.24 0.01
0 0 1 -0.23 0.01
-1 0 -1 32.91 2.28
1 0 1 36.83 2.69
1 0 1 37.39 2.75
-1 0 -1 31.91 2.5
-1 0 -1 31.75 2.49
-1 0 -1 33.57 2.42
1 0 1 38.21 2.6
-1 0 -1 32.01 2.64
1 0 1 34.04 2.96
-1 0 -1 32.69 2.56
1 0 1 33.97 2.91
-1 0 -1 32.42 2.52
1 0 1 34.32 2.87
-2 0 -1 0.03 0.05
2 0 1 0.05 0.05
2 0 1 0.13 0.05
2 0 1 0.09 0.03
2 0 1 0.09 0.06
2 0 1 0.25 0.06
-2 0 -1 -0.02 0.05
2 0 1 0.11 0.06
-2 0 -1 -0.01 0.04
2 0 1 0.02 0.03
-2 0 -1 0.07 0.06
-2 0 -1 0.14 0.06
-2 0 -1 0.1 0.07
-2 0 -1 0.08 0.06
3 0 1 570.46 37.92
-3 0 -1 479.06 37.09
3 0 1 485 40.97
-3 0 -1 460.45 36.4
-3 0 -1 516.59 36.02
3 0 1 517.58 36.38
3 0 1 459.14 37.02
3 0 1 496.52 39.04
-3 0 -1 514.65 32.03
-3 0 -1 511.41 34.98
-3 0 -1 488.77 34.92
-3 0 -1 490.71 35.35
-3 0 -1 495.11 36.34
3 0 1 438.01 41.65
3 0 1 538.25 40.43
4 0 1 -0.11 0.07
-4 0 -1 -0.09 0.07
4 0 1 -0.13 0.03
-4 0 -1 -0.15 0.09
-4 0 -1 -0.08 0.09
4 0 1 -0.1 0.08
-4 0 -1 -0.11 0.06
4 0 1 0 0.08
4 0 1 0.06 0.1
-4 0 -1 0.06 0.11
4 0 1 -0.11 0.07
-4 0 -1 -0.12 0.08
-4 0 -1 -0.14 0.08
5 0 1 70.69 5.02
-5 0 -1 80.98 5.43
5 0 1 90.75 6.48
-5 0 -1 86.4 5.97
5 0 1 82.08 5.36
5 0 1 81.8 5.41
5 0 1 81.13 5.49
-5 0 -1 79.09 6.19
5 0 1 82.27 5.54
-5 0 -1 90.73 5.99
5 0 1 76.8 5.36
-5 0 -1 86.56 6.34
-5 0 -1 90.51 6.06
5 0 1 93.99 6.92
5 0 1 77.88 6.63
5 0 1 78.39 5.16
6 0 1 0.09 0.15
6 0 1 0.18 0.16
6 0 1 0.16 0.13
-6 0 -1 0.33 0.17
6 0 1 0.15 0.14
-6 0 -1 0.11 0.12
6 0 1 0.5 0.18
6 0 1 0.14 0.16
6 0 1 0.04 0.12
6 0 1 0.14 0.11
-6 0 -1 0.19 0.15
-6 0 -1 0.09 0.18
-6 0 -1 0.23 0.18
6 0 1 0.2 0.17
6 0 1 0.15 0.12
7 0 1 2.6 0.32
7 0 1 2.53 0.29
7 0 1 2.69 0.34
7 0 1 2.93 0.37
7 0 1 2.74 0.33
7 0 1 3.7 0.48
8 0 1 0.36 0.16
-8 0 -1 0.37 0.15
8 0 1 0.24 0.15
-8 0 -1 0.28 0.2
-8 0 -1 0.2 0.16
-8 0 -1 0.38 0.21
8 0 1 0.08 0.13
-8 0 -1 0.36 0.16
8 0 1 0.19 0.13
8 0 1 0.08 0.15
9 0 1 60.56 3.91
-9 0 -1 58.7 4.17
-9 0 -1 58.86 3.75
-9 0 -1 63.19 4.31
9 0 1 62.17 4.05
9 0 1 61.15 4.02
-9 -1 1 0.47 0.17
8 -1 -1 0.36 0.13
8 -1 -1 0.56 0.17
8 -1 -1 0.54 0.16
8 -1 -1 0.42 0.13
8 -1 -1 0.4 0.15
8 1 -1 0.53 0.18
-8 1 1 0.43 0.17
8 1 -1 0.43 0.16
8 1 -1 0.75 0.22
-8 1 1 0.33 0.17
-8 1 1 0.47 0.19
8 1 -1 0.53 0.19
-8 1 1 0.45 0.16
-8 1 1 0.49 0.18
8 1 -1 0.59 0.18
8 1 -1 0.4 0.16
7 -1 -1 32.8 2.18
7 -1 -1 31.27 2.21
7 -1 -1 31.03 2.03
7 -1 -1 31.16 2.17
7 -1 -1 33.14 2.25
7 -1 -1 28.12 2.14
7 1 -1 31.91 2.2
-7 1 1 31.57 2.1
7 1 -1 32.29 2.28
-7 1 1 33.21 2.42
-7 1 1 30.19 2.03
7 1 -1 33.2 2.21
-7 1 1 33.57 2.36
-7 1 1 33.32 2.19
7 1 -1 30.5 2.08
7 1 -1 31.52 2.2
7 1 -1 33.75 2.26
-7 1 1 31.21 2.09
6 -1 -1 0.74 0.2
-6 -1 1 0.68 0.24
-6 -1 1 0.86 0.25
6 -1 -1 0.9 0.27
-6 -1 1 0.79 0.25
6 -1 -1 0.84 0.28
-6 -1 1 0.79 0.24
6 -1 -1 0.81 0.26
-6 -1 1 0.76 0.23
6 -1 -1 0.86 0.18
-6 -1 1 0.46 0.19
6 1 -1 0.92 0.21
-6 1 1 0.69 0.25
6 1 -1 0.46 0.2
6 1 -1 1.09 0.29
6 1 -1 0.86 0.27
6 1 -1 1.37 0.27
-6 1 1 0.61 0.22
-6 1 1 1.16 0.35
6 1 -1 0.59 0.17
-6 1 1 0.78 0.29
-6 1 1 1.31 0.35
-6 1 1 1.11 0.25
-6 1 1 0.68 0.25
6 1 -1 0.84 0.24
-6 1 1 0.73 0.22
-6 1 1 1.42 0.32
6 1 -1 0.78 0.22
-6 1 1 0.92 0.27
-5 -1 1 309.08 20.91
5 -1 -1 311.37 23.09
5 -1 -1 271.05 24.62
-5 -1 1 323.93 20.68
5 -1 -1 318.35 22.39
5 -1 -1 336.82 23.92
-5 -1 1 292.48 21.5
-5 -1 1 315.62 21.96
-5 -1 1 289.32 20.66
5 -1 -1 320.96 24.24
-5 -1 1 306.79 21.54
-5 1 1 259.77 18.26
-5 1 1 310.04 20.95
-5 1 1 269.3 17.51
5 1 -1 284.69 19.24
5 1 -1 281.44 18.62
5 1 -1 275.6 18.34
5 1 -1 276.95 18.78
5 1 -1 254.42 18.63
5 1 -1 282.55 19.07
-5 1 1 294.04 17.87
-5 1 1 268.32 17.35
5 1 -1 282.83 18.66
-5 1 1 300 21.98
5 1 -1 282.29 17.94
4 -1 -1 1.52 0.3
-4 -1 1 1.37 0.25
-4 -1 1 1.26 0.24
-4 -1 1 1.3 0.24
-4 -1 1 1.24 0.24
4 -1 -1 1.19 0.25
4 -1 -1 1.24 0.24
4 -1 -1 0.96 0.21
4 -1 -1 1.63 0.26
4 -1 -1 0.87 0.17
-4 -1 1 1.3 0.23
-4 -1 1 0.96 0.15
-4 -1 1 1.29 0.23
4 -1 -1 1.14 0.19
-4 1 1 1.21 0.23
4 1 -1 0.78 0.19
4 1 -1 0.83 0.17
4 1 -1 0.99 0.19
4 1 -1 1.38 0.26
-4 1 1 1.25 0.25
4 1 -1 0.74 0.18
-4 1 1 0.98 0.23
-4 1 1 1.95 0.32
4 1 -1 0.91 0.21
4 1 -1 0.7 0.19
4 1 -1 0.87 0.18
4 1 -1 0.92 0.21
4 1 -1 0.83 0.18
-4 1 1 1.19 0.24
3 -1 -1 0.98 0.18
3 -1 -1 1.3 0.17
-3 -1 1 1.12 0.17
3 -1 -1 1.33 0.18
3 -1 -1 1.67 0.2
-3 -1 1 1.05 0.14
-3 -1 1 1.51 0.15
-3 -1 1 1.1 0.18
-3 -1 1 1.04 0.18
-3 -1 1 1.34 0.22
-3 -1 1 1.39 0.22
3 -1 -1 1.64 0.22
3 -1 -1 1.19 0.2
3 -1 -1 0.66 0.16
-3 1 1 1.35 0.19
-3 1 1 0.65 0.18
-3 1 1 1.24 0.23
-3 1 1 1.04 0.16
-3 1 1 1.86 0.22
3 1 -1 0.95 0.18
3 1 -1 0.89 0.16
-2 -1 1 55.84 4.26
2 -1 -1 60.36 4.97
-2 -1 1 58 4.42
2 -1 -1 63.09 4.49
2 -1 -1 61.56 4.42
2 -1 -1 62.09 4.64
-2 -1 1 57.77 3.8
-2 -1 1 60.42 4.21
-2 -1 1 55.63 4.03
2 -1 -1 60.35 4.33
2 -1 -1 59.55 4.79
-2 -1 1 57.54 4.16
2 -1 -1 61.63 4.88
-2 -1 1 60.54 4.16
-2 1 1 54.53 4.33
-2 1 1 58.22 4.18
-2 1 1 51.45 4.32
-2 1 1 60.54 4.23
-2 1 1 56.26 4.43
-2 1 1 51.55 4.31
-1 -1 1 115.32 8.01
1 -1 -1 116.16 9.8
1 -1 -1 112.07 8.71
1 -1 -1 118.05 9.16
-1 -1 1 113.1 7.52
-1 -1 1 113.85 8.53
1 -1 -1 117.73 8.56
1 -1 -1 118.17 9.62
1 -1 -1 111.91 9.47
1 -1 -1 111.92 8.87
-1 -1 1 112.82 8.45
-1 1 1 112.61 8.57
-1 1 1 123.95 8.72
-1 1 1 112.74 8.56
-1 1 1 129.53 8.22
-1 1 1 121.92 8.54
-1 1 1 118.97 8.55
0 -1 1 73.03 5.28
0 -1 -1 66.68 5.01
0 -1 -1 68.5 5.63
0 -1 1 69.07 5.54
0 -1 -1 61.34 5.26
0 -1 -1 58.31 5.09
0 -1 -1 71.16 4.63
0 -1 1 69.69 5.46
0 -1 -1 65.62 5.53
0 -1 -1 63.36 5.09
0 -1 -1 61.7 5.44
0 -1 -1 66.18 4.93
0 1 1 70.04 4.95
0 1 1 66.35 4.94
1 -1 1 751.64 61.37
-1 -1 -1 760.42 53.57
1 -1 1 709.3 60.3
-1 -1 -1 751.82 51.49
-1 -1 -1 737.37 54.51
-1 1 -1 684.89 54.58
-1 1 -1 681.42 51.37
-1 1 -1 783.23 53.57
-2 -1 -1 37.21 2.68
2 -1 1 40.82 2.96
-2 -1 -1 36.46 2.56
-2 -1 -1 37.55 2.66
2 -1 1 37.9 2.73
2 -1 1 40.16 3.17
-2 -1 -1 37.88 2.65
2 -1 1 38.76 2.85
2 -1 1 39.95 2.82
2 -1 1 38.56 3.06
-2 -1 -1 37.68 2.43
-2 -1 -1 32.05 2.71
-2 -1 -1 36.61 2.72
2 -1 1 39.47 3.11
2 1 1 37.74 2.86
-2 1 -1 36.79 2.67
-2 1 -1 32.74 2.81
2 1 1 36.23 3.04
-2 1 -1 34.89 2.66
2 1 1 37.77 2.75
-2 1 -1 32.82 2.72
-2 1 -1 34.13 2.74
-2 1 -1 35.65 2.7
-3 -1 -1 15.56 1.09
-3 -1 -1 11.8 1
3 -1 1 14.92 1.29
-3 -1 -1 14.47 1.09
-3 -1 -1 15.64 1.1
3 -1 1 14.82 1.14
-3 -1 -1 14.93 1.16
3 -1 1 15.12 1.16
-3 -1 -1 14.09 0.98
3 -1 1 15.42 1.1
3 -1 1 14.69 1.24
-3 -1 -1 14.23 1.1
3 -1 1 14.04 1.26
3 -1 1 14.63 1.21
-3 1 -1 11.54 1.1
3 1 1 12.83 1.22
-3 1 -1 14.76 1.11
-3 1 -1 14.04 1.12
3 1 1 13.72 1.16
-3 1 -1 11.57 1.15
-3 1 -1 13.74 1.13
-4 -1 -1 40.42 2.65
-4 -1 -1 40.59 2.75
-4 -1 -1 40.51 2.64
4 -1 1 34.63 2.75
-4 -1 -1 38.98 2.8
-4 -1 -1 38.13 2.67
4 -1 1 32.54 2.69
-4 -1 -1 33.95 2.64
4 -1 1 38.99 2.7
4 -1 1 40.14 3.09
4 -1 1 37.64 3.12
4 -1 1 40.14 2.94
-4 -1 -1 37.49 2.38
4 -1 1 41.04 3.04
-4 1 -1 35.59 2.81
4 1 1 36.94 2.84
-4 1 -1 39.34 2.66
4 1 1 31.23 2.37
-4 1 -1 39.87 2.69
4 1 1 32.17 2.26
4 1 1 32.19 2.31
-4 1 -1 31.73 2.22
-4 1 -1 29.71 2.23
-4 1 -1 32.33 2.28
4 1 1 31.63 2.42
-4 1 -1 41.02 2.72
4 1 1 30.1 2.37
-4 1 -1 29.3 2.2
4 1 1 31.3 2.45
4 1 1 33.61 2.35
4 1 1 33.17 3
-5 -1 -1 68.47 4.91
-5 -1 -1 67.6 4.68
5 -1 1 59.61 5.46
5 -1 1 63.97 5.4
5 -1 1 67.8 5.34
5 -1 1 67.66 4.99
-5 -1 -1 57.69 4.77
-5 -1 -1 68.65 4.64
-5 -1 -1 57.33 4.17
-5 -1 -1 64.96 4.81
5 -1 1 68.35 5.16
-5 -1 -1 63.63 4.6
5 1 1 59.12 4.18
5 1 1 62.75 4
5 1 1 56.46 4.17
-5 1 -1 70.92 4.74
-5 1 -1 59.15 3.95
-5 1 -1 58.46 3.89
-5 1 -1 67.57 4.02
-5 1 -1 63.4 4.44
-5 1 -1 63.37 3.9
-5 1 -1 59.51 3.94
5 1 1 61.9 4.18
5 1 1 65.86 4.27
-5 1 -1 62.02 4.91
-5 1 -1 62.46 4.11
-5 1 -1 65.6 4.58
5 1 1 64.19 4.09
5 1 1 58.08 5.3
-5 1 -1 71.35 4.69
5 1 1 60.02 4.14
5 1 1 65.69 4.33
-5 1 -1 67.12 4.65
-6 -1 -1 22.25 1.77
6 -1 1 20.11 1.92
-6 -1 -1 18.49 1.77
-6 -1 -1 23.44 1.87
-6 -1 -1 23.39 1.76
-6 -1 -1 20.74 1.8
6 -1 1 20.33 2.01
-6 -1 -1 21.64 1.72
6 -1 1 22.51 2.02
6 -1 1 19.57 1.85
-6 1 -1 23.84 1.82
-6 1 -1 24.28 1.72
6 1 1 22.81 1.65
-6 1 -1 23.43 1.76
-6 1 -1 23.78 1.58
6 1 1 20.1 1.52
-6 1 -1 22.76 1.5
6 1 1 22.67 1.59
-6 1 -1 20.58 1.85
6 1 1 22.33 1.59
6 1 1 22.55 1.51
6 1 1 23.5 1.61
6 1 1 22.08 1.53
-6 1 -1 24.59 1.55
-6 1 -1 23.37 1.81
6 1 1 23.6 1.63
-6 1 -1 23.28 1.48
7 -1 1 112.64 7.44
7 -1 1 106.89 7.38
7 -1 1 121.33 7.39
7 -1 1 117.47 7.57
7 -1 1 128.48 7.66
7 -1 1 105.46 6.92
-7 1 -1 112.37 6.89
7 1 1 120.05 7.68
-7 1 -1 108.98 7.04
7 1 1 118.95 7.49
7 1 1 97.86 7.38
-7 1 -1 120.62 7.13
-7 1 -1 120.18 7.92
-7 1 -1 122.41 8.16
7 1 1 115.15 7.61
-7 1 -1 116.08 7.33
7 1 1 121.62 7.14
7 1 1 111.39 7.41
7 1 1 100.9 7.26
8 -1 1 0.08 0.08
8 -1 1 0.33 0.16
8 -1 1 0.16 0.12
8 -1 1 0.23 0.13
8 -1 1 0.19 0.13
8 1 1 0.24 0.14
8 1 1 0.48 0.17
-8 1 -1 0.39 0.2
-8 1 -1 0.36 0.16
-8 1 -1 0.18 0.14
8 1 1 0.23 0.14
8 1 1 0.45 0.19
-8 1 -1 0.01 0.13
8 1 1 0.21 0.13
-8 1 -1 0.32 0.17
8 1 1 0.24 0.13
8 -2 -1 2.34 0.23
8 -2 -1 2.72 0.26
8 -2 -1 2.31 0.25
8 -2 -1 2.82 0.27
8 2 -1 2.19 0.27
8 2 -1 2.46 0.29
-8 2 1 2.33 0.29
-8 2 1 2.81 0.29
8 2 -1 1.99 0.23
8 2 -1 2.53 0.27
-8 2 1 2.7 0.32
8 2 -1 2.11 0.26
-8 2 1 2.66 0.26
7 -2 -1 29.9 1.88
7 -2 -1 26.97 1.92
7 -2 -1 28.71 1.88
7 -2 -1 24.97 1.88
7 -2 -1 26.58 1.75
7 -2 -1 23.37 1.75
-7 2 1 31.2 2.14
7 2 -1 25.42 1.82
7 2 -1 28.71 1.97
7 2 -1 28.25 1.92
-7 2 1 24.7 1.79
7 2 -1 25.4 1.88
-7 2 1 31.46 2.09
-7 2 1 27.4 1.82
-7 2 1 26.63 1.77
7 2 -1 29.32 2
7 2 -1 28.49 1.93
7 2 -1 26.91 1.81
-7 2 1 30.57 1.92
6 2 -1 3.89 0.46
6 2 -1 3.15 0.37
-6 2 1 3.75 0.51
-6 2 1 3.74 0.41
6 2 -1 4.1 0.45
6 2 -1 3.43 0.38
6 2 -1 2.6 0.46
6 2 -1 3.56 0.38
-6 2 1 3.9 0.52
-6 2 1 3.84 0.47
-6 2 1 4.06 0.45
6 2 -1 3.73 0.48
6 2 -1 3.5 0.46
-6 2 1 3.6 0.48
-5 -2 1 19.55 1.54
5 -2 -1 17.2 1.79
5 -2 -1 17.01 1.71
5 -2 -1 16.41 1.57
-5 -2 1 23.03 1.66
-5 -2 1 19.7 1.55
-5 -2 1 17.83 1.58
5 -2 -1 18.78 1.68
5 -2 -1 18.13 1.77
-5 -2 1 19.69 1.61
-5 2 1 18.04 1.62
5 2 -1 19.2 1.41
5 2 -1 18.34 1.3
5 2 -1 18.5 1.48
5 2 -1 17.38 1.42
5 2 -1 18.29 1.35
5 2 -1 19.05 1.32
-5 2 1 18.88 1.35
-5 2 1 15.79 1.64
5 2 -1 19.87 1.36
5 2 -1 18.39 1.34
-5 2 1 22.7 1.38
5 2 -1 19.06 1.45
5 2 -1 21.63 1.34
-5 2 1 19.89 1.32
-5 2 1 22.6 1.45
-5 2 1 18.65 1.36
5 2 -1 18.33 1.45
-5 2 1 20.68 1.61
-5 2 1 20.45 1.56
-4 -2 1 17.05 1.28
-4 -2 1 15.5 1.26
4 -2 -1 16.29 1.49
4 -2 -1 15.35 1.31
-4 -2 1 15.4 1.23
-4 -2 1 15.38 1.31
4 -2 -1 15.61 1.29
4 -2 -1 16.74 1.39
4 -2 -1 16.53 1.22
4 -2 -1 15.23 1.46
-4 -2 1 17.5 1.35
4 -2 -1 15.73 1.4
-4 2 1 13.29 1.1
-4 2 1 14.06 1.25
4 2 -1 14.95 1.09
-4 2 1 13.52 1.35
4 2 -1 15.64 1.08
-4 2 1 14.96 1.16
-4 2 1 15.46 1.08
-4 2 1 14.91 1.3
4 2 -1 15.1 1.22
4 2 -1 16.15 1.16
4 2 -1 16.58 1.2
4 2 -1 14.27 1.18
4 2 -1 15.56 1.22
-4 2 1 15.75 1
4 2 -1 15.66 1.22
4 2 -1 13.25 1.16
-4 2 1 16.13 1.36
4 2 -1 16.07 1.11
4 2 -1 14.69 1.07
4 2 -1 16.76 1.13
-4 2 1 15.11 1.1
4 2 -1 14.79 1.08
-4 2 1 14.96 1.12
4 2 -1 15.95 1.13
-3 -2 1 428.07 28.06
3 -2 -1 438.73 28.05
3 -2 -1 433.04 31
-3 -2 1 362.9 24.19
3 -2 -1 377.46 30.5
-3 -2 1 400.64 26.44
-3 -2 1 417.01 26.41
-3 -2 1 395.87 26.72
3 -2 -1 402.24 29.49
3 2 -1 367.44 21.25
-3 2 1 372.12 22.41
3 2 -1 364.13 24.6
3 2 -1 356.05 21.96
3 2 -1 404.66 23.89
3 2 -1 384.71 24.4
3 2 -1 355.68 22.37
3 2 -1 338.36 22.62
-3 2 1 362.55 22.7
3 2 -1 397.01 26.59
3 2 -1 364.56 21.18
3 2 -1 393.26 23.49
3 2 -1 384.92 22.96
3 2 -1 398.8 24.33
3 2 -1 392.81 26.91
3 2 -1 393.55 23.21
3 2 -1 374.44 23.46
3 2 -1 397.14 24.05
3 2 -1 351.06 23.22
-3 2 1 369.93 23.4
3 2 -1 346.15 20.79
3 2 -1 369.53 21.16
3 2 -1 348.94 23.78
-3 2 1 337.66 23.5
-3 2 1 371.66 28.07
3 2 -1 377.9 23.38
3 2 -1 335.69 23.08
3 2 -1 375.38 26.53
-3 2 1 375.67 21.19
3 2 -1 350.01 22.49
-3 2 1 364.67 22.51
-3 2 1 334.31 25.35
3 2 -1 348.15 22.37
3 2 -1 354.27 23.82
-3 2 1 346.34 22.81
-3 2 1 357.75 26.11
2 -2 -1 8.04 0.6
2 -2 -1 7.04 0.61
-2 -2 1 6.6 0.56
-2 -2 1 6.38 0.55
2 -2 -1 6.22 0.59
-2 -2 1 7.41 0.59
2 -2 -1 7.46 0.63
-2 -2 1 5.88 0.51
-2 -2 1 7.14 0.58
-2 -2 1 6.88 0.51
-2 2 1 6 0.58
2 2 -1 6.56 0.49
2 2 -1 6.26 0.51
2 2 -1 5.92 0.49
2 2 -1 7.34 0.48
2 2 -1 6.29 0.49
2 2 -1 6.07 0.56
2 2 -1 6.19 0.55
2 2 -1 6.6 0.52
2 2 -1 6.25 0.5
2 2 -1 6.19 0.55
2 2 -1 5.98 0.5
2 2 -1 6.9 0.51
-2 2 1 5.71 0.53
-2 2 1 6.93 0.5
2 2 -1 6.21 0.51
2 2 -1 6.52 0.48
2 2 -1 7.12 0.49
2 2 -1 6.12 0.53
2 2 -1 6.13 0.46
2 2 -1 6.55 0.51
-2 2 1 5.61 0.5
-2 2 1 6.24 0.5
-2 2 1 6.22 0.47
2 2 -1 7.05 0.54
2 2 -1 6.75 0.51
2 2 -1 7.08 0.52
2 2 -1 6.26 0.51
2 2 -1 6.49 0.47
2 2 -1 6.56 0.55
2 2 -1 6.23 0.48
2 2 -1 6.48 0.5
2 2 -1 6.81 0.59
2 2 -1 6.78 0.47
2 2 -1 5.72 0.56
2 2 -1 6.61 0.48
2 2 -1 5.62 0.53
2 2 -1 5.85 0.5
2 2 -1 6.48 0.47
1 -2 -1 118.16 10.01
1 -2 -1 136.04 10.74
1 -2 -1 138.03 9.4
1 -2 -1 128.55 10.53
-1 -2 1 129.1 9.52
1 -2 -1 142.76 8.83
-1 -2 1 116.71 10.5
-1 -2 1 129.12 10.7
-1 -2 1 108.66 10.35
-1 -2 1 128.45 9.36
-1 -2 1 129.44 8.25
-1 -2 1 113.46 10
-1 -2 1 123.45 9.27
-1 -2 1 128.46 8.78
1 -2 -1 137.9 9.57
0 -2 -1 35.33 2.52
0 -2 -1 34.01 2.87
0 -2 1 35.36 2.58
0 -2 1 35.09 2.89
0 -2 -1 28.04 2.64
0 -2 -1 34.86 2.38
0 -2 -1 30.56 2.8
0 -2 1 32.32 2.81
0 -2 1 29.99 2.66
0 -2 1 36.79 2.39
0 -2 1 28.18 2.74
0 -2 -1 35.01 2.54
0 -2 -1 35.86 2.57
0 -2 1 36.66 2.54
1 -2 1 13.91 1.19
-1 -2 -1 13.66 0.91
1 -2 1 13.5 1.05
1 -2 1 12.05 1.07
-1 -2 -1 12.15 0.95
1 -2 1 13 1.15
-1 -2 -1 11.47 1
-1 -2 -1 13.24 1.02
-1 -2 -1 11.62 1
1 -2 1 13.79 1.06
-1 -2 -1 13.87 1.01
-1 -2 -1 11.57 1.11
1 -2 1 11.51 1.08
2 -2 1 4.17 0.4
-2 -2 -1 2.81 0.3
-2 -2 -1 3.52 0.32
-2 -2 -1 3.58 0.36
2 -2 1 3.22 0.35
2 -2 1 3.87 0.38
-2 -2 -1 3.22 0.33
2 -2 1 3.7 0.41
2 -2 1 3.39 0.41
-2 -2 -1 3.48 0.36
2 -2 1 3.37 0.37
-2 2 -1 3.31 0.32
-2 2 -1 3.24 0.34
2 2 1 2.95 0.34
2 2 1 3.29 0.32
2 2 1 3.12 0.31
-2 2 -1 3.07 0.29
2 2 1 2.89 0.3
2 2 1 3.14 0.35
-2 2 -1 3.19 0.32
-2 2 -1 2.97 0.37
2 2 1 3.05 0.31
2 2 1 3.28 0.32
-2 2 -1 2.92 0.32
2 2 1 4.16 0.37
-2 2 -1 3.06 0.38
2 2 1 3.24 0.35
2 2 1 3.71 0.35
-2 2 -1 3.01 0.35
2 2 1 2.94 0.3
-3 -2 -1 273.95 18.08
-3 -2 -1 262.54 16.37
-3 -2 -1 246.71 18.38
3 -2 1 267.81 21.33
3 -2 1 273.01 19.95
-3 -2 -1 269.44 17.89
-3 -2 -1 283.42 19
3 -2 1 266.93 20.62
3 -2 1 280.73 18.64
-3 -2 -1 287.59 17.88
3 -2 1 282.53 18.97
3 -2 1 284.79 20.96
3 2 1 254.7 15.89
-3 2 -1 258.03 15.16
-3 2 -1 231.6 15.45
-3 2 -1 253.44 14.32
3 2 1 236.75 16.64
-3 2 -1 240.79 15.9
3 2 1 273 18.21
-3 2 -1 258.96 15.83
3 2 1 224.15 16.09
3 2 1 260.54 16.15
3 2 1 233.62 16.08
3 2 1 228.73 14.38
3 2 1 223.56 15.11
3 2 1 238.14 15.69
3 2 1 232.54 15.85
-3 2 -1 236.01 15.01
3 2 1 231.79 15.2
3 2 1 262.59 16.27
-3 2 -1 235.02 17.15
-3 2 -1 245.29 15.35
3 2 1 221.22 15.28
3 2 1 273.05 16.46
-3 2 -1 217.06 15.29
3 2 1 253.87 17.94
-3 2 -1 238.23 18.95
3 2 1 276.44 17.99
-3 2 -1 238.35 15.21
-3 2 -1 245.27 17.68
3 2 1 272.76 15.71
3 2 1 250.59 16.51
-4 -2 -1 0.02 0.13
4 -2 1 0.01 0.11
4 -2 1 0.08 0.13
4 -2 1 0.03 0.14
4 -2 1 0.12 0.15
-4 -2 -1 0.27 0.14
4 -2 1 0.17 0.13
-4 -2 -1 0.03 0.11
-4 -2 -1 0.63 0.22
-4 -2 -1 0.54 0.2
4 -2 1 -0.02 0.11
-4 -2 -1 0.15 0.16
4 2 1 0.13 0.17
-4 2 -1 0 0.21
4 2 1 -0.02 0.08
4 2 1 0.01 0.11
-4 2 -1 0.06 0.15
4 2 1 0.03 0.21
-4 2 -1 -0.04 0.12
4 2 1 0.16 0.2
-4 2 -1 0.33 0.23
4 2 1 0.03 0.09
-4 2 -1 0.04 0.12
-4 2 -1 -0.05 0.15
-4 2 -1 0.09 0.17
4 2 1 0.12 0.14
-4 2 -1 -0.01 0.14
4 2 1 0.17 0.15
-4 2 -1 0.67 0.27
4 2 1 0.05 0.15
4 2 1 0.01 0.18
4 2 1 -0.06 0.1
-4 2 -1 0.13 0.2
4 2 1 0.31 0.14
-4 2 -1 0.02 0.17
4 2 1 0.22 0.14
5 -2 1 94.49 8.4
5 -2 1 100.89 8.56
-5 -2 -1 101.91 7.63
5 -2 1 103.03 8.7
5 -2 1 85.75 7.55
-5 -2 -1 100.98 7.39
-5 -2 -1 104.12 7.32
-5 -2 -1 107 7.77
5 -2 1 101.02 8.15
5 -2 1 93.61 7.7
-5 -2 -1 95.97 7.61
-5 -2 -1 89.57 7.28
5 2 1 102.35 6.69
5 2 1 108.76 6.4
5 2 1 101.38 6.87
5 2 1 104.1 6.36
5 2 1 104.03 6.59
5 2 1 107.33 6.81
-5 2 -1 107.57 6.38
5 2 1 105.22 6.68
-5 2 -1 108.82 7.31
5 2 1 93.61 6.6
-5 2 -1 93.52 7.37
5 2 1 105.61 6.5
5 2 1 96.83 6.63
-5 2 -1 105.71 7.08
-5 2 -1 103.9 6.2
-5 2 -1 99.78 6.15
-5 2 -1 110.31 6.31
-5 2 -1 109.12 6.55
-6 2 -1 2.83 0.48
6 2 1 3 0.35
6 2 1 3.31 0.41
6 2 1 2.53 0.31
-6 2 -1 2.72 0.42
-6 2 -1 3.21 0.45
6 2 1 3.41 0.56
-6 2 -1 3.49 0.56
6 2 1 3.65 0.45
6 2 1 2.97 0.35
6 2 1 2.54 0.45
-6 2 -1 3.38 0.43
-6 2 -1 3.08 0.36
6 2 1 3.49 0.38
-6 2 -1 2.55 0.39
7 -2 1 1.35 0.22
7 -2 1 1.02 0.21
7 2 1 0.84 0.26
-7 2 -1 1.2 0.25
7 2 1 1.26 0.27
-7 2 -1 1.03 0.25
7 2 1 0.96 0.22
-7 2 -1 1.27 0.25
7 2 1 1.33 0.28
7 2 1 0.64 0.24
-7 2 -1 1.5 0.34
7 2 1 0.88 0.18
-7 2 -1 0.82 0.27
7 2 1 0.74 0.19
8 -2 1 1.27 0.19
8 -2 1 1.4 0.21
8 -2 1 1.17 0.21
-8 2 -1 0.95 0.22
-8 2 -1 1.18 0.23
8 2 1 1.2 0.22
8 2 1 1.05 0.19
-8 2 -1 1.29 0.21
8 2 1 1.06 0.18
8 2 1 1.27 0.22
7 -3 -1 36.84 2.34
7 -3 -1 38.16 2.48
7 -3 -1 41.36 2.5
7 3 -1 38.37 2.53
-7 3 1 38.03 2.39
-7 3 1 38.42 2.67
7 3 -1 38.27 2.57
7 3 -1 34.82 2.59
-7 3 1 41.27 2.5
7 3 -1 36.65 2.41
6 3 -1 0.46 0.2
-6 3 1 0.38 0.2
-6 3 1 0.5 0.17
-6 3 1 0.48 0.19
6 3 -1 0.47 0.2
6 3 -1 0 0.18
6 3 -1 0.51 0.14
6 3 -1 0.62 0.17
-6 3 1 0.47 0.26
6 3 -1 0.47 0.15
-6 3 1 0.37 0.21
-6 3 1 0.54 0.23
6 3 -1 0.48 0.16
6 3 -1 0.43 0.22
6 3 -1 0.5 0.2
-5 3 1 58.9 3.53
5 3 -1 50.22 3.72
5 3 -1 57.51 3.6
-5 3 1 59.53 3.61
5 3 -1 55.81 3.76
5 3 -1 47 3.86
-5 3 1 59.37 3.76
5 3 -1 58.14 3.67
5 3 -1 57.71 3.79
5 3 -1 54.49 3.86
-5 3 1 59.45 4.05
5 3 -1 57.34 3.71
-5 3 1 57.27 4.14
-5 3 1 54.66 3.65
5 3 -1 53.19 3.59
5 3 -1 56.69 4.1
4 3 -1 9.9 0.76
4 3 -1 9.33 0.8
4 3 -1 7.19 0.77
-4 3 1 9.01 0.76
4 3 -1 9.16 0.83
-4 3 1 8.56 0.77
4 3 -1 9.8 0.76
4 3 -1 7.67 0.68
4 3 -1 7.51 0.81
4 3 -1 8.48 0.69
4 3 -1 8.51 0.79
-4 3 1 8.55 0.81
4 3 -1 8.18 0.7
4 3 -1 9.61 0.75
-4 3 1 9.31 0.75
-4 3 1 9.56 0.9
4 3 -1 8.44 0.79
-4 3 1 8.7 0.89
4 3 -1 9.58 0.81
-4 3 1 9.62 0.68
4 3 -1 9.19 0.74
4 3 -1 9.63 0.72
4 3 -1 7.91 0.76
3 -3 -1 0.85 0.33
3 -3 -1 0.65 0.26
-3 -3 1 0.78 0.29
3 -3 -1 0.93 0.33
-3 -3 1 0.48 0.25
-3 -3 1 0.88 0.3
-3 -3 1 0.59 0.28
3 -3 -1 0.75 0.27
3 -3 -1 0.7 0.27
3 -3 -1 0.98 0.29
-3 -3 1 0.58 0.28
3 3 -1 1.18 0.26
3 3 -1 0.9 0.21
3 3 -1 1.14 0.25
-3 3 1 1.17 0.34
3 3 -1 1.94 0.28
3 3 -1 1.58 0.28
3 3 -1 0.91 0.28
3 3 -1 0.62 0.26
-3 3 1 0.88 0.22
3 3 -1 0.68 0.21
-3 3 1 0.99 0.23
3 3 -1 0.86 0.23
3 3 -1 2.32 0.39
3 3 -1 0.73 0.21
-3 3 1 1.22 0.3
-3 3 1 0.91 0.32
3 3 -1 0.93 0.27
3 3 -1 1.72 0.32
3 3 -1 0.76 0.21
3 3 -1 0.82 0.2
-3 3 1 1.05 0.28
3 3 -1 0.9 0.25
-3 3 1 1.09 0.27
3 3 -1 0.68 0.26
-3 3 1 1.15 0.34
3 3 -1 1.55 0.3
3 3 -1 0.93 0.25
3 3 -1 2.02 0.35
-3 3 1 1.43 0.3
3 3 -1 0.67 0.19
-3 3 1 0.91 0.22
-2 -3 1 8.61 0.86
-2 -3 1 7.77 0.74
2 -3 -1 9.12 0.84
-2 -3 1 8.57 0.85
-2 -3 1 8.61 0.84
2 -3 -1 9.39 0.9
2 -3 -1 9.78 0.92
2 -3 -1 8.05 0.98
2 -3 -1 9.34 0.89
2 3 -1 9.3 0.78
-2 3 1 8.72 0.72
-2 3 1 8.78 0.73
2 3 -1 9.22 0.71
-2 3 1 9.06 0.87
2 3 -1 9.94 0.75
2 3 -1 9.64 0.75
2 3 -1 8.62 0.77
2 3 -1 9.76 0.72
2 3 -1 8.66 0.8
2 3 -1 10.6 0.79
-2 3 1 8.87 0.73
2 3 -1 9.31 0.78
2 3 -1 9.31 0.73
2 3 -1 10.41 0.85
2 3 -1 9.05 0.72
2 3 -1 10.1 0.85
2 3 -1 9.5 0.67
-2 3 1 9.83 0.78
-2 3 1 10.02 0.79
2 3 -1 9.54 0.74
2 3 -1 10.28 0.73
-2 3 1 9.7 0.7
2 3 -1 10.31 0.78
2 3 -1 8.83 0.79
2 3 -1 9.91 0.85
2 3 -1 9.52 0.73
2 3 -1 9.45 0.74
-2 3 1 8.35 0.71
2 3 -1 9.84 0.81
2 3 -1 9.75 0.75
-2 3 1 9.58 0.86
2 3 -1 9.61 0.76
2 3 -1 9.4 0.83
-2 3 1 10.06 0.77
-2 3 1 8.99 0.8
2 3 -1 9.52 0.74
1 -3 -1 118.47 8.85
-1 -3 1 106.02 8.12
1 -3 -1 125.71 8.19
1 -3 -1 116.82 8.71
1 -3 -1 107.45 9.92
-1 -3 1 108.76 8.45
-1 -3 1 110.07 8.36
1 -3 -1 119.11 8.64
-1 -3 1 111.26 8.59
-1 -3 1 114.62 7.66
-1 3 1 117.12 6.71
-1 3 1 116.07 7.1
1 3 -1 120.49 8.39
1 3 -1 111.38 7.24
1 3 -1 116.2 7.42
1 3 -1 127.09 7.09
-1 3 1 115.92 7.42
-1 3 1 104.31 8.36
1 3 -1 132.4 8.27
1 3 -1 128.92 8.42
-1 3 1 123 7.13
1 3 -1 112 7.51
1 3 -1 121.6 7.18
1 3 -1 124.56 6.7
-1 3 1 109.34 8.37
1 3 -1 121.64 7.4
1 3 -1 120.19 7.41
1 3 -1 118.31 7.33
1 3 -1 124.09 8.51
1 3 -1 120.69 7.69
-1 3 1 121.44 7.2
-1 3 1 102.45 6.97
1 3 -1 117.39 7.53
-1 3 1 113.53 8
1 3 -1 125.5 7.14
1 3 -1 120.24 7.08
1 3 -1 120.21 7
1 3 -1 109.83 7.7
1 3 -1 121.5 7.12
-1 3 1 120.01 8.25
1 3 -1 120.32 7.54
-1 3 1 109.81 7.18
-1 3 1 112.54 7.41
1 3 -1 118.63 8
-1 3 1 108.78 7.43
1 3 -1 111.82 7.34
1 3 -1 118.11 7.2
-1 3 1 116.82 7.34
-1 3 1 106.78 8.47
1 3 -1 112.58 7.58
1 3 -1 123.49 7.42
1 3 -1 109.73 7.76
0 -3 1 5.64 0.61
0 -3 1 6 0.63
0 -3 1 6.22 0.57
0 -3 1 6.21 0.62
0 -3 -1 6.14 0.58
0 -3 1 5.76 0.59
0 -3 -1 5.9 0.63
0 -3 -1 6.19 0.59
0 -3 -1 5.87 0.61
0 3 -1 6.93 0.54
0 3 1 5.9 0.54
0 3 -1 5.34 0.51
0 3 -1 6.21 0.52
0 3 1 6.34 0.55
0 3 1 6.36 0.54
0 3 -1 5.7 0.58
0 3 -1 6.15 0.51
0 3 -1 6.16 0.53
0 3 1 5.31 0.54
0 3 1 5.97 0.53
0 3 1 5.77 0.48
0 3 -1 5.83 0.59
0 3 -1 6.68 0.55
0 3 1 5.23 0.5
0 3 -1 5.82 0.54
0 3 1 4.93 0.49
0 3 -1 6.28 0.49
0 3 -1 6.84 0.52
0 3 1 6.33 0.54
0 3 -1 6.87 0.57
0 3 -1 6.25 0.59
0 3 1 6.15 0.61
0 3 1 5.61 0.52
0 3 1 5.81 0.51
0 3 1 5.62 0.53
0 3 1 6.38 0.53
0 3 1 6.12 0.6
0 3 -1 6.24 0.52
0 3 1 6.04 0.58
0 3 1 6.23 0.59
0 3 -1 5.97 0.53
0 3 -1 6.31 0.51
0 3 1 6.26 0.54
0 3 -1 6.99 0.64
0 3 1 5.16 0.51
0 3 1 5.99 0.51
0 3 1 6.53 0.6
0 3 -1 5.83 0.51
0 3 1 5.66 0.5
0 3 1 5.76 0.49
0 3 -1 5.72 0.55
0 3 -1 5.7 0.52
0 3 -1 6.46 0.54
0 3 -1 6.58 0.5
0 3 -1 6.25 0.57
0 3 -1 5.71 0.58
-1 -3 -1 112.77 7.59
-1 -3 -1 103.22 7.35
-1 -3 -1 105.53 7.77
1 -3 1 102.99 8.98
1 -3 1 113.26 7.41
1 -3 1 107.98 7.82
-1 -3 -1 109.53 6.93
1 -3 1 107.57 8.01
-1 -3 -1 103.36 7.65
1 -3 1 111.45 7.89
-1 3 -1 101.85 6.62
1 3 1 105.63 6.39
-1 3 -1 106.15 6.05
1 3 1 111.33 6.71
-1 3 -1 113.36 7.49
1 3 1 110.03 7.69
-1 3 -1 102.32 6.33
1 3 1 110.36 6.63
1 3 1 91.83 6.83
1 3 1 105.67 6.49
-1 3 -1 110.89 7.26
-1 3 -1 112.06 6.51
1 3 1 106.84 6.81
-1 3 -1 105.89 7.56
1 3 1 116.07 7.44
1 3 1 95.86 6.94
-1 3 -1 105.03 6.7
-1 3 -1 104.69 6.52
-1 3 -1 105.79 6.7
-1 3 -1 109.21 6.74
-1 3 -1 98.54 7.64
-1 3 -1 88.09 6.76
-1 3 -1 115.93 6.43
-1 3 -1 100.5 6.07
1 3 1 116.7 6.44
1 3 1 102.71 7.59
-1 3 -1 104.21 6.44
1 3 1 110.4 6.05
1 3 1 97.57 6.99
-1 3 -1 104.68 5.93
1 3 1 104.57 6.47
1 3 1 113.31 6.65
1 3 1 97.5 6.53
1 3 1 101.64 6.68
1 3 1 113.64 7.59
-1 3 -1 90.68 6.57
1 3 1 106.09 6.94
-1 3 -1 97.48 7.55
1 3 1 103.41 6.77
1 3 1 101.85 7.2
-1 3 -1 105.42 6.43
1 3 1 101.19 6.69
-1 3 -1 101.86 6.32
1 3 1 107.68 6.68
-1 3 -1 90.73 6.89
-2 -3 -1 17.23 1.3
-2 -3 -1 15.71 1.44
2 -3 1 16.75 1.69
-2 -3 -1 17.38 1.46
2 -3 1 18.12 1.53
2 -3 1 18.95 1.52
-2 -3 -1 17.61 1.44
2 -3 1 18.05 1.43
2 -3 1 16.25 1.63
-2 -3 -1 17.5 1.45
2 3 1 18.53 1.31
-2 3 -1 18.89 1.27
-2 3 -1 18.6 1.24
2 3 1 17.57 1.29
-2 3 -1 18.82 1.42
2 3 1 19.08 1.22
2 3 1 17.78 1.24
2 3 1 17.01 1.3
-2 3 -1 18.2 1.28
2 3 1 17.42 1.24
2 3 1 17.07 1.28
2 3 1 16.42 1.19
-2 3 -1 18.02 1.15
2 3 1 17.8 1.27
2 3 1 16.38 1.27
-2 3 -1 17.24 1.2
-2 3 -1 17.3 1.23
2 3 1 17.07 1.24
2 3 1 18.8 1.2
-2 3 -1 16.01 1.2
-2 3 -1 17.83 1.25
2 3 1 18.87 1.45
2 3 1 19.4 1.26
2 3 1 15.79 1.32
2 3 1 17.63 1.25
-2 3 -1 18.28 1.47
2 3 1 17.81 1.25
-2 3 -1 17.52 1.25
2 3 1 18.58 1.43
-2 3 -1 16.27 1.19
2 3 1 18.12 1.42
-2 3 -1 18.89 1.33
2 3 1 18.6 1.21
2 3 1 18.59 1.13
2 3 1 17.02 1.32
3 -3 1 26.34 2.13
-3 -3 -1 25.28 2.16
3 -3 1 28.62 2.6
3 -3 1 23.4 2.49
-3 -3 -1 29.9 2.22
-3 -3 -1 27.57 2.32
-3 -3 -1 28.05 2.19
3 -3 1 28.29 2.28
3 -3 1 26.91 2.3
3 3 1 29.9 2.19
3 3 1 30.36 1.89
3 3 1 30.87 1.92
3 3 1 24.94 1.94
-3 3 -1 28.4 1.74
-3 3 -1 27.5 1.91
-3 3 -1 29.32 1.94
3 3 1 29.87 1.95
-3 3 -1 29.86 2.24
-3 3 -1 29.02 2.15
3 3 1 28.06 2.15
3 3 1 30.33 1.98
-3 3 -1 25.47 1.81
3 3 1 29.59 2.01
3 3 1 28.97 1.89
3 3 1 28.91 1.9
-3 3 -1 29.17 1.87
3 3 1 25.28 2.02
3 3 1 27.58 1.81
3 3 1 25.58 2.02
3 3 1 28.47 1.99
3 3 1 27.53 1.7
-3 3 -1 26.25 1.82
3 3 1 31.92 2.2
-3 3 -1 29.42 1.91
-3 3 -1 28.27 1.98
3 3 1 27.47 1.9
-4 3 -1 3.18 0.36
4 3 1 3.89 0.43
-4 3 -1 3.7 0.52
-4 3 -1 3.69 0.45
4 3 1 4.04 0.43
-4 3 -1 4.04 0.57
4 3 1 3.9 0.42
-4 3 -1 4.15 0.57
-4 3 -1 4.22 0.44
4 3 1 3.45 0.43
4 3 1 4.04 0.45
4 3 1 3.68 0.44
4 3 1 3.45 0.42
4 3 1 3.69 0.49
4 3 1 4.12 0.5
-4 3 -1 4.4 0.59
-4 3 -1 4.15 0.44
4 3 1 2.43 0.46
4 3 1 3.76 0.4
4 3 1 3.36 0.37
4 3 1 3.98 0.45
-5 3 -1 35.59 2.76
-5 3 -1 34.83 2.38
-5 3 -1 34.56 2.3
5 3 1 34.65 2.5
5 3 1 38.6 2.42
5 3 1 39.4 2.45
-5 3 -1 39.81 2.7
5 3 1 37.24 2.47
5 3 1 36.05 2.36
5 3 1 36.63 2.38
5 3 1 31.09 2.54
-5 3 -1 37.25 2.36
5 3 1 34.99 2.67
-5 3 -1 35.83 2.47
-5 3 -1 35.01 2.35
5 3 1 31.65 2.53
-6 3 -1 4.13 0.42
6 3 1 4.07 0.39
6 3 1 3.68 0.45
6 3 1 4.81 0.46
6 3 1 4.12 0.4
-6 3 -1 4.77 0.52
-6 3 -1 4.48 0.46
6 3 1 4.54 0.47
-6 3 -1 4.2 0.5
6 3 1 3.69 0.39
-6 3 -1 3.76 0.37
6 3 1 3.76 0.36
7 -3 1 34.57 2.14
7 -3 1 34.54 2.14
7 3 1 30.82 2.2
7 3 1 32.98 2.18
-7 3 -1 33.16 2.3
-7 3 -1 34.19 2.14
7 3 1 28.26 2.09
7 3 1 32.05 2.07
5 4 -1 5.13 0.43
-5 4 1 6.09 0.46
-5 4 1 5.58 0.43
5 4 -1 5.44 0.45
5 4 -1 5.89 0.44
5 4 -1 5.12 0.44
-4 4 1 1.47 0.31
-4 4 1 1.57 0.23
4 4 -1 0.75 0.25
4 4 -1 1.46 0.22
-4 4 1 1.41 0.29
4 4 -1 1.3 0.27
4 4 -1 1.36 0.26
4 4 -1 1.47 0.23
4 4 -1 1.42 0.26
-4 4 1 1.31 0.24
4 4 -1 1.58 0.26
-4 4 1 1.95 0.31
4 4 -1 1.82 0.28
-4 4 1 1.29 0.23
4 4 -1 1.38 0.24
3 4 -1 48.38 3.74
-3 4 1 57.41 3.65
3 4 -1 57.14 3.74
3 4 -1 54.47 3.56
-3 4 1 58.89 3.9
3 4 -1 62.03 3.68
3 4 -1 61.25 3.63
-3 4 1 55.18 3.61
-3 4 1 51.66 3.24
-3 4 1 51.4 3.43
3 4 -1 53.95 3.7
3 4 -1 55.56 4.11
3 4 -1 56.8 3.6
3 4 -1 47.48 4.05
3 4 -1 63.53 3.57
3 4 -1 52.84 3.53
-3 4 1 51.91 3.46
-3 4 1 56.06 3.53
3 4 -1 56.06 4.06
-2 4 1 0.33 0.16
2 4 -1 0.54 0.21
2 4 -1 0.48 0.18
-2 4 1 0.65 0.24
2 4 -1 0.17 0.22
-2 4 1 0.02 0.16
-2 4 1 0.5 0.28
2 4 -1 0.42 0.17
2 4 -1 0.42 0.2
-2 4 1 0.22 0.18
-2 4 1 0.21 0.19
2 4 -1 0.69 0.22
2 4 -1 0.32 0.2
2 4 -1 0.41 0.21
2 4 -1 0.31 0.19
2 4 -1 0.36 0.2
2 4 -1 0.3 0.18
-2 4 1 0.46 0.19
-2 4 1 0.32 0.17
-2 4 1 0.41 0.25
2 4 -1 0.25 0.16
-2 4 1 0.35 0.17
2 4 -1 0.37 0.18
2 4 -1 0.75 0.21
2 4 -1 0.42 0.2
-1 4 1 38.95 2.92
-1 4 1 39.59 2.7
1 4 -1 43.34 2.47
1 4 -1 40.44 2.63
1 4 -1 40.69 2.63
1 4 -1 41.15 2.7
1 4 -1 44.44 2.61
-1 4 1 42.38 2.74
1 4 -1 44.68 3.11
-1 4 1 37.2 2.62
-1 4 1 41.11 2.49
1 4 -1 45.23 3.14
1 4 -1 40.26 2.77
1 4 -1 41.82 2.73
-1 4 1 42.17 2.63
1 4 -1 42.4 2.83
1 4 -1 43.1 2.71
-1 4 1 39.54 2.66
1 4 -1 43.2 3.09
-1 4 1 42.43 2.75
-1 4 1 41.8 2.75
1 4 -1 38.14 2.7
1 4 -1 35.14 2.7
1 4 -1 42.98 2.73
-1 4 1 36.54 3.06
0 4 -1 21.94 1.58
0 4 -1 19.66 1.35
0 4 1 19.21 1.54
0 4 -1 19.41 1.52
0 4 -1 20.9 1.37
0 4 1 19.71 1.33
0 4 1 19.2 1.35
0 4 1 16.99 1.39
0 4 1 19.68 1.34
0 4 -1 20.56 1.49
0 4 1 20.33 1.55
0 4 1 19.19 1.25
0 4 1 15.78 1.48
0 4 -1 18.79 1.34
0 4 -1 17.52 1.54
0 4 1 19.89 1.35
0 4 -1 18.59 1.4
0 4 -1 21.78 1.26
0 4 -1 21.04 1.38
0 4 1 20.38 1.32
0 4 -1 20.28 1.33
0 4 1 16.94 1.35
0 4 -1 18.34 1.32
0 4 1 22.08 1.4
0 4 1 18.72 1.55
0 4 -1 19.19 1.38
0 4 -1 17.86 1.53
0 4 -1 17.96 1.32
0 4 1 17.31 1.44
1 4 1 7.53 0.7
1 4 1 7.98 0.69
1 4 1 6.09 0.57
1 4 1 6.2 0.6
-1 4 -1 7.45 0.64
-1 4 -1 6.65 0.55
1 4 1 6.17 0.58
-1 4 -1 6.53 0.57
-1 4 -1 7.21 0.6
-1 4 -1 7.23 0.6
-1 4 -1 6.81 0.68
1 4 1 7.16 0.59
1 4 1 7.37 0.68
1 4 1 7.97 0.56
1 4 1 6.04 0.58
1 4 1 5.69 0.57
-1 4 -1 6.94 0.68
1 4 1 6.79 0.58
-1 4 -1 7.67 0.63
-1 4 -1 6.78 0.61
1 4 1 6.48 0.6
1 4 1 6.77 0.6
-1 4 -1 6.88 0.65
1 4 1 6.29 0.57
1 4 1 6.49 0.56
-1 4 -1 5.83 0.65
-1 4 -1 7.52 0.59
-1 4 -1 5.79 0.57
-2 4 -1 5.59 0.53
-2 4 -1 4.94 0.55
2 4 1 5.15 0.47
-2 4 -1 5.49 0.6
-2 4 -1 5.72 0.61
2 4 1 5.71 0.46
2 4 1 5.06 0.49
2 4 1 5.16 0.51
-2 4 -1 5.53 0.47
2 4 1 5.92 0.56
2 4 1 5.73 0.56
-2 4 -1 5.03 0.47
2 4 1 4.89 0.49
-2 4 -1 4.95 0.47
-2 4 -1 5.23 0.51
2 4 1 4.79 0.48
-2 4 -1 5.87 0.47
-2 4 -1 4.72 0.48
-2 4 -1 3.97 0.51
2 4 1 5.92 0.5
2 4 1 3.87 0.51
2 4 1 5.71 0.49
2 4 1 5.09 0.51
2 4 1 5.45 0.56
2 4 1 5.57 0.53
3 4 1 44.87 3
3 4 1 40.65 2.6
3 4 1 37.29 2.5
-3 4 -1 44.16 2.9
3 4 1 37.56 2.73
-3 4 -1 40.5 2.38
3 4 1 39.98 2.63
3 4 1 41.71 2.61
-3 4 -1 42.55 2.7
-3 4 -1 38.46 2.63
3 4 1 45.12 2.62
-3 4 -1 38 2.53
3 4 1 33.52 2.69
-3 4 -1 41.77 2.59
3 4 1 36.68 2.64
3 4 1 33.16 2.72
3 4 1 42.08 2.99
-3 4 -1 39.13 2.96
3 4 1 43.12 2.72
-3 4 -1 39.77 2.51
4 4 1 0.72 0.17
4 4 1 0.28 0.21
4 4 1 1.03 0.22
4 4 1 0.66 0.21
4 4 1 1.02 0.21
4 4 1 1.03 0.2
-4 4 -1 0.86 0.26
4 4 1 0.48 0.21
4 4 1 0.6 0.22
4 4 1 0.74 0.19
-4 4 -1 1.04 0.2
-4 4 -1 0.97 0.21
-4 4 -1 1.22 0.25
-4 4 -1 0.42 0.23
-4 4 -1 0.93 0.18
-4 4 -1 0.7 0.27
-5 4 -1 18.15 1.21
5 4 1 19.15 1.25
5 4 1 17.72 1.23
5 4 1 18.15 1.25
-5 4 -1 19.58 1.28
5 4 1 18.54 1.27
9 0 -2 0.15 0.1
-9 0 2 0.09 0.12
-9 0 2 0.06 0.11
9 0 -2 0.16 0.12
-9 0 2 0.05 0.11
9 0 -2 0 0.09
-8 0 2 4.61 0.43
-8 0 2 5.71 0.51
-8 0 2 5.13 0.46
8 0 -2 6.58 0.52
-8 0 2 5.79 0.48
8 0 -2 5.92 0.52
8 0 -2 5.94 0.49
8 0 -2 4.67 0.46
8 0 -2 4.91 0.43
8 0 -2 5.67 0.5
7 0 -2 0.2 0.13
7 0 -2 0.12 0.13
7 0 -2 0.27 0.18
7 0 -2 -0.1 0.1
7 0 -2 0.04 0.11
7 0 -2 0.17 0.14
7 0 -2 0.2 0.17
6 0 -2 191.73 11.56
6 0 -2 200.63 12.59
-6 0 2 203.2 14.52
6 0 -2 191.59 15.24
-6 0 2 181.08 14.21
-6 0 2 168.52 13.61
-6 0 2 189.72 13.8
6 0 -2 192.17 12.38
6 0 -2 207.69 12.29
6 0 -2 192.88 12.3
6 0 -2 170.15 11.66
6 0 -2 206.5 12.71
-6 0 2 205.23 13.67
-5 0 2 0.02 0.08
5 0 -2 0.05 0.1
-5 0 2 0.07 0.09
-5 0 2 0.06 0.1
5 0 -2 0.05 0.09
-5 0 2 0.05 0.08
5 0 -2 0 0.1
5 0 -2 0.36 0.14
-5 0 2 0.05 0.11
5 0 -2 0.05 0.1
5 0 -2 0 0.1
-5 0 2 0.04 0.1
5 0 -2 -0.03 0.12
5 0 -2 0.22 0.13
-5 0 2 -0.01 0.08
5 0 -2 0.03 0.09
5 0 -2 0.01 0.11
5 0 -2 0.04 0.11
5 0 -2 0.09 0.09
-4 0 2 349.07 26.48
4 0 -2 367.18 28.42
-4 0 2 359.93 25.74
-4 0 2 320.91 26.61
4 0 -2 361.49 29.82
4 0 -2 309.2 30.31
-4 0 2 369.46 25.46
4 0 -2 412.36 29.45
-4 0 2 341.44 23.29
-4 0 2 397 25.45
-4 0 2 375.23 27.03
-4 0 2 358.34 26.52
4 0 -2 380.28 27.59
3 0 -2 0.06 0.08
-3 0 2 -0.05 0.07
-3 0 2 0.08 0.08
3 0 -2 0.11 0.05
-3 0 2 0.04 0.07
3 0 -2 -0.07 0.06
-3 0 2 0.07 0.09
3 0 -2 0.04 0.03
3 0 -2 0.03 0.07
3 0 -2 0.15 0.09
-3 0 2 -0.01 0.04
-3 0 2 -0.05 0.07
3 0 -2 0.28 0.09
-3 0 2 0.06 0.08
-2 0 2 57.7 4.15
2 0 -2 50.12 3.97
2 0 -2 61.07 4.58
-2 0 2 57.89 4.11
-2 0 2 55.44 3.74
-2 0 2 59.34 4.1
2 0 -2 58.6 4.8
2 0 -2 62.92 4.75
2 0 -2 64.61 4.45
2 0 -2 52.47 4.33
-2 0 2 56.82 4.36
2 0 -2 53.21 4.87
-2 0 2 59.38 4.28
-2 0 2 58.39 4.27
-1 0 2 -0.5 0.03
1 0 -2 -0.5 0.03
1 0 -2 -0.51 0.03
-1 0 2 -0.44 0.03
-1 0 2 -0.32 0.04
1 0 -2 -0.43 0.03
1 0 -2 -0.43 0.02
1 0 -2 -0.37 0.03
-1 0 2 -0.48 0.03
-1 0 2 -0.48 0.04
-1 0 2 -0.42 0.04
-1 0 2 -0.5 0.03
0 0 2 142.75 11.41
0 0 2 179.57 11.94
0 0 2 181.18 11.87
0 0 2 172.85 11.9
0 0 2 149.93 10.45
0 0 2 177.1 12.61
0 0 -2 171.24 11.38
0 0 -2 158.22 11.41
0 0 2 172.12 10.78
0 0 -2 153.31 10.45
0 0 -2 152.09 11.52
0 0 -2 155.14 12.09
0 0 2 177.34 11.95
0 0 -2 137.93 12.09
0 0 -2 158.92 11.14
0 0 -2 157.46 11.76
0 0 2 170.88 11.87
0 0 -2 155.88 11.88
1 0 2 -0.12 0.03
-1 0 -2 -0.2 0.03
-1 0 -2 -0.19 0.04
1 0 2 -0.08 0.04
-1 0 -2 -0.18 0.04
1 0 2 -0.03 0.04
-1 0 -2 -0.22 0.05
-2 0 -2 721.62 56.2
-2 0 -2 781.76 53.04
-2 0 -2 754.91 53.56
-2 0 -2 758.74 52.93
3 0 2 0.06 0.07
3 0 2 0.29 0.09
3 0 2 0.22 0.05
-3 0 -2 0.09 0.07
-3 0 -2 0.18 0.09
-3 0 -2 0.12 0.08
-3 0 -2 0.17 0.09
-3 0 -2 0.06 0.06
-3 0 -2 0.07 0.07
3 0 2 0.17 0.09
3 0 2 0.07 0.06
-3 0 -2 0.05 0.06
3 0 2 0.05 0.07
3 0 2 0 0.05
3 0 2 -0.02 0.03
4 0 2 4.18 0.43
-4 0 -2 4.4 0.42
-4 0 -2 4.07 0.4
4 0 2 4.4 0.41
-4 0 -2 4.31 0.43
4 0 2 4.13 0.43
4 0 2 3.97 0.45
4 0 2 3.49 0.42
-4 0 -2 4.12 0.36
-4 0 -2 4.22 0.42
-4 0 -2 4.2 0.43
-4 0 -2 3.69 0.38
5 0 2 0.27 0.12
5 0 2 0.07 0.1
-5 0 -2 0.41 0.16
5 0 2 0.02 0.1
5 0 2 0.09 0.12
5 0 2 0.09 0.1
-5 0 -2 0.19 0.14
-5 0 -2 0.21 0.14
-5 0 -2 0.21 0.13
5 0 2 0.44 0.16
5 0 2 0.18 0.14
-5 0 -2 0.11 0.12
5 0 2 -0.03 0.06
-5 0 -2 0.03 0.07
5 0 2 0.35 0.15
-5 0 -2 0.16 0.1
6 0 2 15.17 1.08
6 0 2 14.52 1.04
-6 0 -2 12.88 1.15
-6 0 -2 14.09 1.19
-6 0 -2 13.57 1.17
6 0 2 15.03 1.27
6 0 2 13.83 0.99
-6 0 -2 12.92 1.22
6 0 2 12.76 1.33
6 0 2 15.22 1.06
6 0 2 11.97 1.25
6 0 2 14.34 0.99
6 0 2 14.46 1.04
6 0 2 16.15 1.1
7 0 2 -0.09 0.14
7 0 2 0.05 0.13
7 0 2 0.01 0.12
7 0 2 -0.05 0.11
7 0 2 -0.06 0.15
7 0 2 0.07 0.12
-8 0 -2 93.14 5.68
8 0 2 91.56 5.91
-8 0 -2 94.98 5.51
8 0 2 95.38 5.96
8 0 2 98.81 6.07
-8 0 -2 89.81 6.29
8 0 2 95.28 6.12
-8 0 -2 80.09 5.81
-8 0 -2 92.25 6.49
8 0 2 83.72 5.89
9 0 2 0.18 0.1
-9 0 -2 -0.01 0.09
9 0 2 0.26 0.12
-9 0 -2 0.15 0.12
8 -1 -2 72.42 4.58
8 -1 -2 65.12 4.28
8 -1 -2 73.38 4.58
8 -1 -2 76.47 4.74
8 -1 -2 63.3 4.65
-8 1 2 71.72 5.04
-8 1 2 72.8 4.91
-8 1 2 76.52 4.56
8 1 -2 75.35 4.76
8 1 -2 68.53 4.59
8 1 -2 72.57 4.6
8 1 -2 72.69 4.71
-8 1 2 68.38 4.37
8 1 -2 67.18 4.61
-8 1 2 62.44 4.37
7 -1 -2 12.1 0.97
7 -1 -2 13.58 0.99
7 -1 -2 14.24 1.07
7 -1 -2 14.39 1.08
7 -1 -2 15.03 1.11
7 -1 -2 14.58 1.07
7 1 -2 14.21 1.1
-7 1 2 15.16 1.22
7 1 -2 13.74 1.09
-7 1 2 14.86 1.19
7 1 -2 15.22 1.09
-7 1 2 15.49 1.11
7 1 -2 14.31 1.11
-7 1 2 12.92 0.99
7 1 -2 17.66 1.04
-7 1 2 15.4 1.05
7 1 -2 13.79 1.13
-7 1 2 14.18 1.04
7 1 -2 13.76 1.01
6 -1 -2 10.37 1.19
6 -1 -2 11.74 1.16
-6 -1 2 11.56 1.07
-6 -1 2 11.63 1.11
6 -1 -2 12.97 0.88
-6 -1 2 10.54 1.07
-6 -1 2 12.17 1.1
6 -1 -2 12.29 1.22
-6 -1 2 12.28 1.05
6 -1 -2 11.12 1.19
-6 -1 2 11.33 1.03
-6 1 2 12.12 1.15
-6 1 2 13.06 0.94
-6 1 2 13.81 1.1
6 1 -2 12.27 0.99
6 1 -2 13.32 0.98
-6 1 2 12.8 1.11
6 1 -2 13 0.99
6 1 -2 12.88 0.95
6 1 -2 12.79 0.9
6 1 -2 12.9 0.9
-6 1 2 11.7 1.08
-6 1 2 13.08 0.93
-6 1 2 13.21 0.99
6 1 -2 12.01 0.9
6 1 -2 13 0.98
-6 1 2 15.36 1.09
5 -1 -2 2.62 0.38
-5 -1 2 2.67 0.33
5 -1 -2 2.94 0.39
-5 -1 2 3.05 0.39
-5 -1 2 2.86 0.36
-5 -1 2 3.06 0.38
-5 -1 2 3.09 0.36
5 -1 -2 2.82 0.4
5 -1 -2 3.03 0.36
5 -1 -2 3.19 0.42
-5 -1 2 3.06 0.37
-5 1 2 3.3 0.42
-5 1 2 2.97 0.38
-5 1 2 3.19 0.39
-5 1 2 2.94 0.42
5 1 -2 2.86 0.34
-5 1 2 3.81 0.46
5 1 -2 3.07 0.3
5 1 -2 2.52 0.31
5 1 -2 2.59 0.3
-5 1 2 3.3 0.42
5 1 -2 2.44 0.32
-5 1 2 2.43 0.31
5 1 -2 2.91 0.36
5 1 -2 2.68 0.35
5 1 -2 2.85 0.34
5 1 -2 2.94 0.34
-4 -1 2 99.58 7.24
4 -1 -2 111.39 8.66
-4 -1 2 109.23 7.34
-4 -1 2 113.73 7.58
-4 -1 2 109.85 7.56
4 -1 -2 101 7.67
4 -1 -2 115.5 8.12
4 -1 -2 111.45 7.85
-4 -1 2 94.55 6.59
-4 -1 2 106.49 7.71
-4 -1 2 113.33 7.27
4 1 -2 91.68 6.58
4 1 -2 86.11 6.74
4 1 -2 89.48 8.07
4 1 -2 91.34 6.29
-4 1 2 109.53 7.77
-4 1 2 110.58 7.38
-4 1 2 100.74 7.59
4 1 -2 92.11 6.43
4 1 -2 91.97 6.54
4 1 -2 91.01 6.69
-3 -1 2 3.01 0.3
-3 -1 2 2.54 0.27
3 -1 -2 3.35 0.33
-3 -1 2 2.58 0.23
-3 -1 2 2.91 0.3
-3 -1 2 2.35 0.23
3 -1 -2 2.98 0.34
3 -1 -2 3.07 0.29
-3 -1 2 2.83 0.3
3 -1 -2 2.78 0.34
3 -1 -2 2.82 0.29
-3 -1 2 2.76 0.31
3 -1 -2 2.81 0.31
3 -1 -2 2.67 0.29
-3 1 2 1.94 0.27
-3 1 2 2.9 0.32
-3 1 2 2.56 0.33
-3 1 2 2.43 0.31
-3 1 2 2.81 0.31
2 -1 -2 485.72 36.38
-2 -1 2 374.15 30.25
2 -1 -2 458.06 34.64
-2 -1 2 449.57 30.98
2 -1 -2 488.81 37.01
-2 -1 2 432.08 31.02
-2 -1 2 428.51 31.35
2 -1 -2 466.06 35.85
2 -1 -2 475.82 32.31
2 -1 -2 464.52 32.89
-2 -1 2 463.74 32.91
-2 -1 2 418.34 28.4
-2 -1 2 400.1 31.94
2 -1 -2 455.15 33.58
-2 1 2 419.9 32.93
-2 1 2 419.18 32.31
-2 1 2 472.48 31.01
-2 1 2 411.3 32.27
-2 1 2 376.25 32.43
-2 1 2 466.95 31.38
1 -1 -2 190.72 14.86
1 -1 -2 203.34 16.71
1 -1 -2 202.58 14.6
1 -1 -2 204.13 16.42
1 -1 -2 189.56 16.17
1 -1 -2 194.59 15.63
1 -1 -2 212.08 13.69
1 -1 -2 205.32 15.15
-1 1 2 201.97 14.6
-1 1 2 216.81 14.02
-1 1 2 204.64 14.88
-1 1 2 198.84 14.58
-1 1 2 180.28 14.64
-1 1 2 183.34 14.64
0 -1 -2 222.76 16.98
0 -1 -2 232.95 19.1
0 -1 -2 228.62 16.52
0 -1 -2 228.61 16.69
0 -1 -2 231.48 18.76
0 -1 -2 206.29 17.86
0 -1 -2 225.86 15.65
0 1 2 236.56 16.68
0 1 2 215.96 17.69
0 1 2 241.16 16.77
0 1 2 235.59 16.77
-1 -1 -2 35.47 2.48
-1 -1 -2 35.41 2.33
1 -1 2 35.79 2.74
1 -1 2 35.36 2.78
1 -1 2 36.26 2.99
-1 -1 -2 34.5 2.64
1 -1 2 36.63 3.05
1 -1 2 34.86 2.63
-1 -1 -2 33.91 2.55
1 -1 2 35.53 2.84
-1 -1 -2 34.4 2.67
1 -1 2 34.81 2.93
-1 -1 -2 35.26 2.62
1 1 2 32.5 2.63
-1 1 -2 33.61 2.69
-1 1 -2 36.42 2.58
1 1 2 37.78 2.67
1 1 2 32.43 2.73
1 1 2 36.1 2.81
-1 1 -2 34.84 2.54
2 -1 2 92.79 6.62
-2 -1 -2 77.33 6.34
2 -1 2 89.43 7.18
2 -1 2 89.88 6.35
-2 -1 -2 86.98 6.3
-2 -1 -2 88.37 5.61
-2 -1 -2 86.51 5.96
2 -1 2 85.92 6.5
2 -1 2 87.49 6.72
-2 -1 -2 86.56 6.12
-2 -1 -2 88.78 6.13
-2 -1 -2 92.06 6.2
2 -1 2 95.28 7.32
2 -1 2 88.9 6.84
2 -1 2 85.53 7.07
2 1 2 83.1 6.62
-2 1 -2 76.23 6.34
-2 1 -2 83.94 6.13
-2 1 -2 85.19 6.15
2 1 2 95.45 6.77
2 1 2 76.05 7.05
2 1 2 91.33 6.37
-2 1 -2 82.28 6.21
-2 1 -2 78.65 6.49
-3 -1 -2 39.04 2.63
3 -1 2 37.34 2.92
-3 -1 -2 31.82 2.5
3 -1 2 38.64 2.83
-3 -1 -2 37.87 2.79
-3 -1 -2 37.81 2.63
3 -1 2 37.78 3.12
3 -1 2 37 3.02
3 -1 2 38.02 2.7
3 -1 2 38.63 3.07
-3 -1 -2 35.29 2.67
-3 -1 -2 35.05 2.39
-3 -1 -2 38.34 2.66
3 -1 2 36.32 2.77
3 1 2 35.62 2.83
-3 1 -2 32.18 2.63
-3 1 -2 32.31 2.67
3 1 2 37.52 2.72
3 1 2 31.96 2.99
-3 1 -2 30.31 2.77
-3 1 -2 38.54 2.66
-4 -1 -2 360.4 24.01
4 -1 2 344.36 26.14
4 -1 2 359.69 23.5
-4 -1 -2 316.23 23.26
-4 -1 -2 348.98 20.71
4 -1 2 323.23 26.95
-4 -1 -2 356.14 22.65
-4 -1 -2 344.15 23.56
4 -1 2 321.03 23.95
-4 -1 -2 365.25 22.89
-4 -1 -2 356.94 22.61
4 -1 2 321.36 23.52
4 1 2 307.99 20.41
4 1 2 284.14 20.54
-4 1 -2 299.26 20.09
4 1 2 298.59 19.63
4 1 2 300.28 20.08
-4 1 -2 316.24 24
4 1 2 323.54 19.85
-4 1 -2 288.17 19.16
-4 1 -2 272.04 19.39
4 1 2 316.93 26.12
4 1 2 294.53 20.86
-4 1 -2 288.32 21.66
-4 1 -2 303.31 18.99
-4 1 -2 299.04 19.53
-4 1 -2 368.04 22.94
4 1 2 291.01 21.05
-4 1 -2 369.67 22.69
4 1 2 333.25 24.5
-4 1 -2 285.68 19.34
-4 1 -2 292.67 22.31
-4 1 -2 334.33 22.64
-5 -1 -2 3.1 0.37
-5 -1 -2 2.35 0.33
-5 -1 -2 2.52 0.29
-5 -1 -2 3.05 0.38
-5 -1 -2 2.88 0.37
5 -1 2 2.99 0.4
-5 -1 -2 3.2 0.4
-5 -1 -2 2.9 0.38
5 -1 2 2.39 0.38
5 -1 2 2.82 0.39
5 -1 2 2.35 0.36
5 -1 2 2.7 0.36
-5 1 -2 3.23 0.47
5 1 2 2.37 0.27
5 1 2 2.71 0.37
-5 1 -2 3.03 0.41
5 1 2 2.54 0.31
5 1 2 2.89 0.42
5 1 2 2.83 0.35
-5 1 -2 2.6 0.36
5 1 2 2.65 0.29
-5 1 -2 2.91 0.34
-5 1 -2 2.67 0.3
-5 1 -2 2.84 0.35
-5 1 -2 2.84 0.38
5 1 2 2.66 0.38
5 1 2 2.61 0.4
5 1 2 2.94 0.3
-5 1 -2 2.94 0.33
-5 1 -2 2.65 0.36
-5 1 -2 2.85 0.37
5 1 2 3.26 0.3
-5 1 -2 2.71 0.38
5 1 2 2.88 0.35
-6 -1 -2 47.08 3.77
6 -1 2 46.04 3.95
-6 -1 -2 45.57 3.53
6 -1 2 48.64 4.12
-6 -1 -2 49.02 3.6
-6 -1 -2 41.07 3.65
-6 -1 -2 47.13 3.56
6 -1 2 43.34 3.82
6 -1 2 42.39 4.12
-6 -1 -2 43.58 3.68
6 1 2 46.09 3.17
6 1 2 50.2 3.09
6 1 2 48.31 3.23
-6 1 -2 47.05 3.03
-6 1 -2 54.7 3.12
6 1 2 50.97 3.35
-6 1 -2 49.46 3.65
-6 1 -2 52.33 3.01
-6 1 -2 48.34 3.17
6 1 2 49.11 3.14
-6 1 -2 45.19 3.57
-6 1 -2 48.75 3.6
6 1 2 50.55 3.31
-6 1 -2 50.74 3.05
-6 1 -2 52.82 3.56
6 1 2 45.81 3.2
6 1 2 51.63 3.24
-6 1 -2 50.74 3.44
7 -1 2 0.18 0.15
7 -1 2 0.06 0.14
7 -1 2 0.26 0.13
7 -1 2 0.09 0.1
7 -1 2 0.31 0.15
7 -1 2 0.17 0.12
-7 1 -2 0.41 0.21
7 1 2 0.25 0.18
-7 1 -2 0.19 0.16
7 1 2 0.23 0.17
-7 1 -2 0.09 0.17
-7 1 -2 0.33 0.19
7 1 2 0.23 0.15
7 1 2 0.18 0.16
7 1 2 0.26 0.13
-7 1 -2 0.32 0.19
7 1 2 0.06 0.13
-7 1 -2 0.4 0.17
7 1 2 0.22 0.19
8 -1 2 1.32 0.25
8 -1 2 1.82 0.26
8 -1 2 1.15 0.21
8 -1 2 1.85 0.28
8 -1 2 1.51 0.24
8 1 2 1.5 0.27
8 1 2 1.94 0.32
8 1 2 1.47 0.27
-8 1 -2 1.05 0.25
-8 1 -2 1.94 0.27
8 1 2 1.12 0.24
8 1 2 1.65 0.25
-8 1 -2 1.57 0.31
-8 1 -2 1.03 0.21
-8 1 -2 1.4 0.26
8 -2 -2 4.08 0.35
8 -2 -2 4 0.33
8 -2 -2 3.7 0.35
8 -2 -2 4.76 0.36
-8 2 2 4.89 0.39
8 2 -2 3.78 0.37
8 2 -2 3.63 0.36
8 2 -2 4.4 0.4
8 2 -2 3.44 0.36
-8 2 2 3.8 0.35
-8 2 2 3.77 0.39
-8 2 2 4.47 0.42
7 -2 -2 2.43 0.34
7 -2 -2 1.69 0.25
7 -2 -2 1.91 0.28
7 -2 -2 2.01 0.3
7 -2 -2 1.34 0.23
-7 2 2 1.63 0.35
7 2 -2 1.82 0.3
7 2 -2 1.41 0.29
7 2 -2 1.7 0.27
-7 2 2 1.47 0.33
-7 2 2 2.04 0.31
7 2 -2 2.45 0.39
7 2 -2 1.71 0.26
7 2 -2 1.88 0.32
7 2 -2 1.58 0.33
-7 2 2 2.55 0.37
-7 2 2 2.38 0.37
6 2 -2 78.7 5.02
6 2 -2 71.65 5.25
6 2 -2 82.63 5.38
6 2 -2 70.88 4.9
6 2 -2 73.56 5.17
6 2 -2 80.36 5.44
-6 2 2 86.77 5.79
-6 2 2 84.22 5.03
-6 2 2 78.02 4.92
-6 2 2 86.22 5.64
-6 2 2 76.11 4.99
6 2 -2 79.87 5.27
6 2 -2 81.22 5.28
6 2 -2 79.27 5.12
-6 2 2 88.02 5.23
-5 -2 2 0.83 0.26
5 -2 -2 1.29 0.35
5 -2 -2 0.68 0.21
-5 -2 2 0.82 0.22
-5 -2 2 0.45 0.22
5 -2 -2 1 0.3
-5 -2 2 0.9 0.29
5 -2 -2 0.75 0.23
-5 -2 2 0.97 0.29
5 -2 -2 0.9 0.26
-5 2 2 0.6 0.26
5 2 -2 1.14 0.34
5 2 -2 0.78 0.25
5 2 -2 1.02 0.23
-5 2 2 1.65 0.34
5 2 -2 0.61 0.17
-5 2 2 1.42 0.38
5 2 -2 1.26 0.3
-5 2 2 0.51 0.29
-5 2 2 1.02 0.34
-5 2 2 0.66 0.29
5 2 -2 0.4 0.18
5 2 -2 0.91 0.22
5 2 -2 0.8 0.19
5 2 -2 1.1 0.23
5 2 -2 1.08 0.31
5 2 -2 0.81 0.22
-5 2 2 1.14 0.31
-5 2 2 0.87 0.25
5 2 -2 1.01 0.34
-5 2 2 1.26 0.26
-4 -2 2 115.89 7.55
-4 -2 2 117.97 8.01
-4 -2 2 115.74 7.87
4 -2 -2 116.94 8.84
-4 -2 2 114.72 7.87
4 -2 -2 101.64 8.65
-4 -2 2 106.83 7.61
4 -2 -2 94.19 7.32
4 -2 -2 106.05 8.98
-4 -2 2 100.8 7.5
4 -2 -2 109.86 8.39
4 -2 -2 103.72 7.82
4 -2 -2 103.05 7.97
4 2 -2 96.93 7.61
4 2 -2 106.18 6.91
4 2 -2 113.29 6.8
-4 2 2 101.96 6.74
-4 2 2 101.08 7.62
4 2 -2 106.86 7.05
4 2 -2 94.55 6.45
4 2 -2 93.9 6.4
4 2 -2 111.86 6.99
-4 2 2 102.15 7.28
-4 2 2 95.32 8.04
4 2 -2 97.81 6.57
-4 2 2 106.56 6.51
4 2 -2 110.69 6.6
-4 2 2 110.59 6.04
4 2 -2 101.02 7.54
4 2 -2 110.09 6.69
-4 2 2 92.25 6.5
-4 2 2 104.7 7.49
4 2 -2 111.75 6.55
4 2 -2 108.83 6.87
4 2 -2 94.77 6.83
4 2 -2 95.89 7.5
4 2 -2 102.57 6.83
-4 2 2 110.22 6.69
-4 2 2 108.51 6.41
3 -2 -2 0.33 0.15
3 -2 -2 0.41 0.18
3 -2 -2 0.6 0.17
-3 -2 2 0.75 0.17
-3 -2 2 0.6 0.17
3 -2 -2 0.42 0.16
3 -2 -2 0.44 0.15
-3 -2 2 0.52 0.17
-3 -2 2 0.37 0.14
3 -2 -2 0.41 0.15
-3 -2 2 0.38 0.12
3 -2 -2 0.5 0.2
-3 -2 2 0.53 0.18
3 2 -2 0.45 0.13
3 2 -2 0.77 0.22
3 2 -2 0.5 0.15
-3 2 2 0.65 0.22
3 2 -2 0.47 0.21
3 2 -2 0.35 0.15
-3 2 2 0.84 0.18
3 2 -2 0.5 0.14
-3 2 2 0.67 0.19
3 2 -2 1.14 0.21
-3 2 2 0.36 0.14
3 2 -2 0.5 0.15
3 2 -2 0.53 0.16
-3 2 2 0.77 0.19
-3 2 2 0.35 0.14
3 2 -2 0.58 0.14
3 2 -2 0.57 0.18
3 2 -2 0.66 0.21
3 2 -2 0.28 0.12
3 2 -2 0.41 0.15
3 2 -2 0.59 0.17
-3 2 2 0.84 0.23
3 2 -2 0.45 0.14
3 2 -2 0.95 0.21
3 2 -2 0.35 0.13
3 2 -2 0.43 0.14
-3 2 2 0.56 0.24
3 2 -2 0.45 0.14
3 2 -2 0.37 0.15
-3 2 2 0.59 0.2
3 2 -2 1.02 0.21
3 2 -2 0.5 0.15
-3 2 2 1.14 0.21
-3 2 2 0.41 0.15
3 2 -2 0.45 0.15
3 2 -2 0.54 0.14
3 2 -2 0.78 0.18
-3 2 2 0.58 0.21
3 2 -2 0.77 0.21
3 2 -2 0.56 0.13
-2 -2 2 0.29 0.1
2 -2 -2 0.1 0.11
-2 -2 2 0.22 0.1
2 -2 -2 0.53 0.19
-2 -2 2 0.03 0.09
2 -2 -2 0.12 0.11
2 -2 -2 0.18 0.12
-2 -2 2 0.1 0.1
-2 -2 2 0.3 0.11
-2 -2 2 0.82 0.18
2 -2 -2 0.15 0.1
-2 2 2 0.08 0.14
2 2 -2 0.09 0.13
2 2 -2 0.1 0.13
2 2 -2 -0.07 0.1
2 2 -2 0.1 0.11
2 2 -2 0.04 0.13
2 2 -2 0.3 0.1
-2 2 2 0.45 0.13
-2 2 2 -0.08 0.11
2 2 -2 0.29 0.12
2 2 -2 -0.03 0.13
2 2 -2 0.16 0.16
2 2 -2 0.73 0.18
-2 2 2 0.02 0.13
2 2 -2 -0.05 0.12
2 2 -2 -0.03 0.1
-2 2 2 0.6 0.23
2 2 -2 0.22 0.15
-2 2 2 0.19 0.1
2 2 -2 0.04 0.09
2 2 -2 0.26 0.17
2 2 -2 0.22 0.11
2 2 -2 0.12 0.12
2 2 -2 0.35 0.12
2 2 -2 -0.08 0.13
2 2 -2 0.31 0.18
2 2 -2 0.33 0.16
2 2 -2 0.69 0.16
2 2 -2 -0.06 0.13
-2 2 2 0.11 0.08
2 2 -2 0.26 0.15
2 2 -2 0.12 0.09
2 2 -2 0.08 0.11
2 2 -2 0.34 0.14
2 2 -2 -0.01 0.12
2 2 -2 -0.04 0.1
-2 2 2 0.1 0.14
2 2 -2 0.28 0.12
2 2 -2 0.35 0.16
2 2 -2 0.23 0.14
2 2 -2 0.07 0.11
2 2 -2 0.53 0.14
2 2 -2 0.44 0.18
2 2 -2 0.06 0.11
-1 -2 2 2.9 0.3
-1 -2 2 2.47 0.3
-1 -2 2 2.8 0.29
-1 -2 2 2.91 0.27
1 -2 -2 3.08 0.32
1 -2 -2 3.26 0.31
-1 -2 2 2.63 0.29
1 -2 -2 3.09 0.32
1 -2 -2 2.46 0.28
-1 -2 2 2.87 0.28
-1 -2 2 2.34 0.29
-1 -2 2 2.63 0.29
-1 -2 2 2.47 0.31
1 -2 -2 2.97 0.35
1 -2 -2 2.84 0.33
0 -2 -2 334.9 23.52
0 -2 2 284.38 24.89
0 -2 2 287.11 23.49
0 -2 2 344.49 26.93
0 -2 -2 342.88 23.29
0 -2 2 353.19 23.53
0 -2 -2 353.2 23.93
0 -2 2 281.66 23.44
0 -2 2 324.7 26.44
0 -2 2 352.8 23.95
0 -2 -2 343.68 26.91
0 -2 -2 344.66 22.06
0 -2 2 312.81 25.18
0 -2 2 290.83 21.28
0 -2 2 284.62 24.41
0 -2 2 299.36 26.05
0 -2 -2 318.36 26.41
1 -2 2 0.4 0.12
1 -2 2 0.49 0.16
-1 -2 -2 0.53 0.15
1 -2 2 0.51 0.16
-1 -2 -2 0.41 0.13
1 -2 2 0.29 0.15
-1 -2 -2 0.38 0.11
-1 -2 -2 0.24 0.09
-1 -2 -2 0.46 0.12
1 -2 2 0.3 0.1
1 -2 2 0.39 0.14
-1 -2 -2 0.33 0.14
-1 -2 -2 0.48 0.13
1 -2 2 0.65 0.15
-2 -2 -2 243.11 15.32
2 -2 2 239.34 17.94
-2 -2 -2 186.29 15.87
2 -2 2 247.14 15.97
2 -2 2 224.86 17.65
-2 -2 -2 227.13 14.91
-2 -2 -2 225.42 15.48
-2 -2 -2 237.73 15.76
-2 -2 -2 233.56 14.02
2 -2 2 245.12 16.25
2 -2 2 237.48 17.08
2 2 2 191.51 14.11
2 2 2 203.47 13.44
-2 2 -2 209.65 13.14
-2 2 -2 200.06 13.6
2 2 2 215.73 15.59
2 2 2 209.26 13.82
-2 2 -2 216.31 12.26
2 2 2 202.92 13.29
-2 2 -2 195.71 13.21
-2 2 -2 197.81 12.84
2 2 2 217.19 14.09
-2 2 -2 212.47 13.54
-2 2 -2 206.32 14.68
2 2 2 209.46 13.6
-2 2 -2 208.77 15.12
2 2 2 196.04 13.9
-2 2 -2 216.39 12.97
2 2 2 220.41 15.37
2 2 2 217.4 13.46
2 2 2 218.74 15.4
3 -2 2 1.94 0.32
-3 -2 -2 2.15 0.3
3 -2 2 1.9 0.29
3 -2 2 1.94 0.3
-3 -2 -2 2.09 0.25
-3 -2 -2 2.24 0.29
3 -2 2 1.95 0.32
3 -2 2 1.96 0.29
3 -2 2 2.01 0.33
-3 -2 -2 1.87 0.26
-3 -2 -2 2.18 0.3
3 2 2 2.08 0.3
3 2 2 2.25 0.35
-3 2 -2 1.87 0.27
-3 2 -2 1.63 0.25
-3 2 -2 2.22 0.35
3 2 2 2.04 0.34
3 2 2 1.92 0.27
3 2 2 1.39 0.23
3 2 2 1.75 0.28
3 2 2 2.04 0.29
-3 2 -2 1.66 0.29
-3 2 -2 2.74 0.3
-3 2 -2 1.78 0.3
-3 2 -2 2.36 0.27
3 2 2 2.11 0.27
3 2 2 2 0.26
3 2 2 2.04 0.3
3 2 2 1.83 0.27
-3 2 -2 1.93 0.32
-3 2 -2 1.92 0.35
3 2 2 2.1 0.28
-3 2 -2 2.03 0.24
3 2 2 1.8 0.31
3 2 2 1.69 0.24
3 2 2 1.81 0.26
4 -2 2 1.6 0.29
4 -2 2 1.39 0.33
4 -2 2 1.49 0.36
-4 -2 -2 0.52 0.22
-4 -2 -2 1.85 0.31
-4 -2 -2 1.51 0.25
4 -2 2 1 0.25
-4 -2 -2 2.14 0.36
-4 -2 -2 1.44 0.3
4 -2 2 1.22 0.29
4 -2 2 1.4 0.28
-4 -2 -2 1.46 0.3
-4 2 -2 1.05 0.27
-4 2 -2 1.2 0.32
4 2 2 1.38 0.28
4 2 2 0.9 0.19
-4 2 -2 1.32 0.34
-4 2 -2 0.87 0.25
-4 2 -2 1.31 0.24
4 2 2 1.44 0.25
4 2 2 0.64 0.26
4 2 2 1.2 0.25
4 2 2 1.04 0.29
4 2 2 1.11 0.21
-4 2 -2 1.77 0.36
4 2 2 1.04 0.25
-4 2 -2 1.17 0.32
-4 2 -2 1.49 0.29
-4 2 -2 1.43 0.25
4 2 2 0.83 0.28
4 2 2 1.34 0.25
-4 2 -2 1.19 0.27
-5 -2 -2 13.4 1.12
5 -2 2 11.22 1.22
-5 -2 -2 12.39 1.09
5 -2 2 10.01 1.02
5 -2 2 12.14 1.29
-5 -2 -2 12.7 1.15
5 -2 2 12.55 1.21
-5 -2 -2 13.29 1.18
-5 -2 -2 13.12 1.13
5 -2 2 13.34 1.29
5 -2 2 11.54 1.12
5 2 2 12.48 1.08
-5 2 -2 13.69 1.17
-5 2 -2 14.21 1.04
-5 2 -2 13.64 0.94
5 2 2 13.68 0.99
5 2 2 13.2 0.94
-5 2 -2 13.76 1.02
5 2 2 11.84 1.03
5 2 2 13.23 0.97
5 2 2 12.84 0.98
-5 2 -2 12.14 1.17
5 2 2 14.48 1.06
5 2 2 13.21 0.98
-5 2 -2 14.32 0.98
-5 2 -2 12.92 0.96
-5 2 -2 14.61 1.14
5 2 2 12.71 1.09
6 2 2 72.16 4.88
-6 2 -2 76.03 5.02
-6 2 -2 76.26 4.83
-6 2 -2 74.62 4.72
-6 2 -2 82.19 4.91
6 2 2 81.35 5.26
6 2 2 76.19 4.99
-6 2 -2 78.72 5.62
6 2 2 75.76 5.06
6 2 2 78.49 5.15
6 2 2 78.31 4.9
-6 2 -2 82.43 5.46
6 2 2 73.32 5.08
6 2 2 77.53 5.3
7 -2 2 0.76 0.2
7 -2 2 0.34 0.12
-7 2 -2 0.57 0.21
7 2 2 0.79 0.25
7 2 2 0.51 0.16
7 2 2 0.79 0.26
7 2 2 0.37 0.15
-7 2 -2 0.63 0.21
7 2 2 0.49 0.22
-7 2 -2 0.89 0.29
7 2 2 0.7 0.2
-7 2 -2 0.5 0.18
7 2 2 0.5 0.2
-7 2 -2 0.64 0.26
8 -2 2 57.93 3.88
8 -2 2 63.86 4.02
8 -2 2 62.94 3.89
8 2 2 61.44 3.94
-8 2 -2 61.12 4.29
-8 2 -2 57.66 3.84
-8 2 -2 64.03 4.17
8 2 2 59.93 4
8 2 2 54.22 4.01
8 2 2 58.92 3.75
7 -3 -2 1.81 0.19
7 -3 -2 1.71 0.2
7 3 -2 1.3 0.23
-7 3 2 1.87 0.26
7 3 -2 1.28 0.21
-7 3 2 1.68 0.23
7 3 -2 1.96 0.2
7 3 -2 1.79 0.26
-6 3 2 10.12 0.82
6 3 -2 10.69 0.82
-6 3 2 11.55 0.86
6 3 -2 11.98 0.94
6 3 -2 11.19 0.87
6 3 -2 10.59 0.88
-6 3 2 10.56 0.94
6 3 -2 10.96 0.79
-6 3 2 12.36 0.92
6 3 -2 11.77 0.84
-6 3 2 12.36 0.98
-6 3 2 10.75 0.82
6 3 -2 12.33 0.92
6 3 -2 10.33 0.86
6 3 -2 11.54 0.82
-5 3 2 8.56 0.65
-5 3 2 9.01 0.83
5 3 -2 8.92 0.78
-5 3 2 9.66 0.78
5 3 -2 8.83 0.77
-5 3 2 9.03 0.74
-5 3 2 9.18 0.74
5 3 -2 7.67 0.76
5 3 -2 8.74 0.83
5 3 -2 9.2 0.73
5 3 -2 8.53 0.8
5 3 -2 9.19 0.7
-5 3 2 10.27 0.91
5 3 -2 9.01 0.72
5 3 -2 7.97 0.79
5 3 -2 9.69 0.73
-5 3 2 9.09 0.86
5 3 -2 8.42 0.71
-4 3 2 25.65 1.84
4 3 -2 22.92 1.67
4 3 -2 23.89 1.7
-4 3 2 25.93 1.76
4 3 -2 26.08 1.87
4 3 -2 26.27 1.72
4 3 -2 27.02 1.78
4 3 -2 23.99 1.88
4 3 -2 23.76 1.82
4 3 -2 24.53 1.95
4 3 -2 22.58 1.67
4 3 -2 27.04 1.95
-4 3 2 25.78 1.78
-4 3 2 24.23 1.98
4 3 -2 25.8 1.69
-4 3 2 25.19 1.96
4 3 -2 24.08 1.7
4 3 -2 25.06 1.81
4 3 -2 23.88 1.92
-4 3 2 25.59 1.58
-4 3 2 25.91 1.72
4 3 -2 26.03 1.79
4 3 -2 26.9 1.75
4 3 -2 22.72 1.8
3 -3 -2 6.72 0.74
3 -3 -2 6.94 0.73
3 -3 -2 6.01 0.67
3 -3 -2 6.68 0.71
-3 -3 2 6.26 0.69
3 -3 -2 6.32 0.8
-3 -3 2 6.6 0.74
3 -3 -2 5.34 0.74
-3 -3 2 6.12 0.7
-3 -3 2 6.61 0.71
-3 3 2 7.31 0.57
3 3 -2 7.62 0.59
-3 3 2 6.92 0.65
3 3 -2 7.18 0.58
-3 3 2 7.05 0.72
3 3 -2 5.8 0.58
3 3 -2 7.29 0.61
3 3 -2 6.54 0.64
-3 3 2 6.89 0.58
3 3 -2 7.31 0.61
-3 3 2 6.81 0.71
-3 3 2 6.8 0.63
3 3 -2 7.32 0.69
3 3 -2 6.74 0.65
-3 3 2 6.33 0.61
3 3 -2 7.22 0.62
3 3 -2 6.31 0.59
3 3 -2 6.87 0.68
3 3 -2 7.26 0.66
3 3 -2 7.13 0.66
-3 3 2 7.25 0.69
3 3 -2 6.93 0.54
3 3 -2 7.22 0.67
3 3 -2 7.43 0.59
3 3 -2 6.82 0.53
3 3 -2 7.39 0.62
-3 3 2 7 0.58
3 3 -2 6.62 0.61
3 3 -2 6.85 0.61
3 3 -2 6.82 0.66
3 3 -2 6.83 0.56
-2 -3 2 132 10.88
-2 -3 2 148.2 10.89
2 -3 -2 153.68 10.67
2 -3 -2 153.37 11.56
2 -3 -2 155.56 11.38
2 -3 -2 138.17 12.97
2 -3 -2 155.5 11.28
-2 -3 2 142.21 11.55
-2 -3 2 135.69 11
2 3 -2 155.06 9.58
-2 3 2 152.37 9.3
2 3 -2 156.72 8.73
2 3 -2 168.02 9.87
2 3 -2 173.64 10.07
-2 3 2 154.46 9.68
-2 3 2 152.31 9.27
-2 3 2 143.04 9.56
2 3 -2 159.94 9.58
2 3 -2 163.29 11.1
-2 3 2 149.85 9.69
2 3 -2 176.03 10.78
2 3 -2 164.24 10.95
2 3 -2 147.46 9.82
-2 3 2 129.84 10.89
2 3 -2 147.74 10.15
2 3 -2 168.16 9.3
2 3 -2 156.6 9.48
2 3 -2 154.01 8.59
-2 3 2 143.32 9.71
2 3 -2 158.18 9.35
2 3 -2 151.53 9.84
2 3 -2 154.35 9.67
2 3 -2 150.3 9.22
2 3 -2 169.43 10.98
2 3 -2 157.83 9.69
2 3 -2 152.89 9.35
2 3 -2 154.96 10.07
2 3 -2 152.71 9.24
2 3 -2 152.42 10.43
-2 3 2 147.12 10.46
2 3 -2 142.96 9.91
-2 3 2 151.55 8.76
2 3 -2 149.65 9.53
-2 3 2 147.19 10.76
2 3 -2 150.95 9.67
-2 3 2 150.74 9.39
2 3 -2 158.42 9.64
1 -3 -2 12.93 1.36
-1 -3 2 13.96 1.08
1 -3 -2 13.72 1.23
-1 -3 2 12.61 1.18
-1 -3 2 11.62 1.1
1 -3 -2 15.07 1.18
1 -3 -2 14.3 1.12
-1 -3 2 13.47 1.18
1 -3 -2 13.96 1.23
-1 -3 2 13.59 1.19
1 -3 -2 14.48 1.24
1 3 -2 16.34 1.04
1 3 -2 14.2 1.04
1 3 -2 14.51 1.17
1 3 -2 16.79 1.2
-1 3 2 14.02 1.03
-1 3 2 13.36 1
-1 3 2 13.8 1.06
1 3 -2 14.68 1
1 3 -2 14.2 1.01
1 3 -2 15.15 0.96
-1 3 2 13.15 1.15
1 3 -2 14.5 1.07
-1 3 2 13.95 1.12
1 3 -2 15.01 1.09
1 3 -2 15.51 1.02
1 3 -2 14.1 1.05
-1 3 2 12.93 1.16
1 3 -2 15.08 1
1 3 -2 14.01 1.01
1 3 -2 14.95 1.02
1 3 -2 13.83 1.07
1 3 -2 14.17 1.11
1 3 -2 14.43 0.95
1 3 -2 14.39 1.18
1 3 -2 13.71 1.02
-1 3 2 13.7 1.04
-1 3 2 13.79 1.15
-1 3 2 11.94 1.13
1 3 -2 14.59 1.04
-1 3 2 14.73 0.97
1 3 -2 14.56 1.1
1 3 -2 15.14 1.14
1 3 -2 14.92 1.05
-1 3 2 13.72 1.06
1 3 -2 15.82 1.02
1 3 -2 14.48 1.02
1 3 -2 15.41 1.09
-1 3 2 13.61 1.01
-1 3 2 13.83 1.02
1 3 -2 14.46 1.17
1 3 -2 14.56 1.03
1 3 -2 14.53 1.06
0 -3 2 44.18 3.52
0 -3 -2 46.96 3.12
0 -3 -2 42.21 3.54
0 -3 2 42.32 3.3
0 -3 -2 45.4 3.51
0 -3 -2 47.34 3.32
0 -3 -2 48.84 3.51
0 -3 2 43.59 3.49
0 -3 2 43.92 3.56
0 -3 2 45.63 3.11
0 3 -2 48 3.39
0 3 -2 46.02 3.1
0 3 2 46.08 2.72
0 3 2 44.13 2.9
0 3 2 46.9 3.01
0 3 -2 46.01 2.89
0 3 2 44.95 3.39
0 3 -2 47.35 2.73
0 3 -2 47.82 3
0 3 -2 49.75 3.01
0 3 -2 48.56 2.89
0 3 2 45.71 3
0 3 2 44.68 3.39
0 3 2 48.6 2.99
0 3 2 41.51 2.93
0 3 2 41.84 2.8
0 3 -2 47.23 2.85
0 3 -2 43 3.38
0 3 -2 48.87 2.72
0 3 -2 47.67 3.02
0 3 -2 46.51 3.12
0 3 -2 45.35 2.66
0 3 -2 44.04 2.98
0 3 -2 48.15 2.95
0 3 -2 47.66 3.43
0 3 -2 44.15 3.06
0 3 -2 49.63 2.74
0 3 -2 47.04 2.85
0 3 2 46.44 3.33
0 3 -2 46.21 3.25
0 3 2 46.39 2.88
0 3 2 43.59 3.09
0 3 -2 45.01 2.92
0 3 2 44.49 2.99
0 3 -2 47.13 2.93
0 3 -2 45.67 2.96
0 3 2 40.54 2.88
0 3 2 41.23 3.2
0 3 -2 51.42 3.38
0 3 2 48.36 2.9
0 3 -2 49.34 2.93
0 3 2 42.97 3.43
0 3 -2 43.9 3.03
0 3 2 40.93 3.01
0 3 -2 46.93 2.88
1 -3 2 6.83 0.71
1 -3 2 6.75 0.79
-1 -3 -2 7.03 0.7
-1 -3 -2 7.97 0.74
-1 -3 -2 6.99 0.65
1 -3 2 7.38 0.74
1 -3 2 7.17 0.69
-1 -3 -2 7.5 0.64
1 -3 2 6.88 0.72
-1 -3 -2 7.8 0.73
1 3 2 8.33 0.62
-1 3 -2 6.92 0.55
-1 3 -2 7.03 0.59
-1 3 -2 6.8 0.59
1 3 2 7.01 0.68
-1 3 -2 6.68 0.58
-1 3 -2 8.47 0.71
-1 3 -2 8.22 0.66
1 3 2 8.29 0.59
1 3 2 7.04 0.67
1 3 2 8.44 0.59
1 3 2 6.36 0.58
1 3 2 7.85 0.69
1 3 2 7.34 0.59
-1 3 -2 7.61 0.72
-1 3 -2 6.6 0.58
1 3 2 6.77 0.59
-1 3 -2 6.99 0.54
-1 3 -2 6.07 0.56
1 3 2 6.94 0.57
-1 3 -2 7.1 0.61
-1 3 -2 7.83 0.61
1 3 2 7.13 0.66
-1 3 -2 7.8 0.62
1 3 2 6.84 0.61
-1 3 -2 6.72 0.53
1 3 2 6.2 0.57
1 3 2 6.96 0.6
1 3 2 6.65 0.61
1 3 2 7.03 0.6
1 3 2 7.49 0.6
-1 3 -2 6.75 0.6
-1 3 -2 6.83 0.65
-1 3 -2 6.69 0.58
-1 3 -2 7.53 0.6
-1 3 -2 6.85 0.57
-1 3 -2 7.27 0.55
-1 3 -2 6 0.63
1 3 2 6.94 0.59
-1 3 -2 6.82 0.65
-1 3 -2 6.21 0.58
1 3 2 8.16 0.56
1 3 2 6.32 0.6
1 3 2 7.01 0.61
1 3 2 6.78 0.59
1 3 2 6.81 0.63
2 -3 2 30.98 2.62
-2 -3 -2 31.32 2.28
2 -3 2 34.23 2.49
-2 -3 -2 33.45 2.55
-2 -3 -2 31.65 2.51
-2 -3 -2 32.56 2.56
-2 -3 -2 31.82 2.52
2 -3 2 31.41 2.97
2 -3 2 29.59 2.89
2 -3 2 33.79 2.67
2 3 2 29.88 2.29
2 3 2 31.32 2.27
-2 3 -2 31.82 2.13
-2 3 -2 32.83 2.17
2 3 2 38.48 2.22
2 3 2 36.44 2.13
2 3 2 31.39 2.11
2 3 2 32.94 2.09
2 3 2 31.04 2.18
2 3 2 34.11 2.51
-2 3 -2 31.51 2.18
2 3 2 34.64 2.23
2 3 2 31.27 2.17
2 3 2 34.3 2.19
2 3 2 32.12 2.49
-2 3 -2 33.05 2.11
-2 3 -2 36.51 2.15
-2 3 -2 34.69 2.01
-2 3 -2 30.78 2.08
-2 3 -2 36.69 2.55
2 3 2 31.39 2.18
-2 3 -2 36.48 2.24
2 3 2 32.26 1.98
2 3 2 33.83 2.27
-2 3 -2 31.89 2.16
-2 3 -2 34.53 2.2
2 3 2 35.19 2.55
-2 3 -2 33.02 2.11
-2 3 -2 34.21 2.26
2 3 2 33.13 2.19
2 3 2 35.16 2.31
-2 3 -2 33.67 2.44
2 3 2 28.59 2.3
3 -3 2 11.39 1.03
-3 -3 -2 11.39 1.05
3 -3 2 12.1 1.11
3 -3 2 10.65 1.09
-3 -3 -2 12.23 1.13
-3 -3 -2 9.28 0.92
-3 -3 -2 11.42 1.06
-3 -3 -2 11.61 1.06
3 -3 2 11.27 1.23
3 3 2 11.78 0.93
3 3 2 10.05 0.96
3 3 2 11.89 0.92
3 3 2 13.51 1.04
-3 3 -2 12.14 0.92
-3 3 -2 12.73 0.9
-3 3 -2 11.6 0.82
3 3 2 11.34 0.96
3 3 2 12.1 0.94
3 3 2 11.64 1.02
3 3 2 12.25 0.85
3 3 2 12.17 0.87
-3 3 -2 12.16 1.06
3 3 2 12.97 0.96
3 3 2 12.17 0.97
-3 3 -2 11.57 0.89
-3 3 -2 11.2 0.84
3 3 2 11.74 0.9
3 3 2 11.31 0.79
-3 3 -2 12.11 0.92
-3 3 -2 12.36 1.11
3 3 2 12.94 1.02
3 3 2 12.36 0.89
-3 3 -2 11.78 0.94
-3 3 -2 11.92 0.97
-4 3 -2 68.62 4.6
4 3 2 78.5 4.98
-4 3 -2 76.29 5.53
4 3 2 82.64 5.06
-4 3 -2 79.61 4.94
4 3 2 81.38 4.83
4 3 2 62.45 5.09
-4 3 -2 75.29 4.79
4 3 2 68.31 5.09
4 3 2 80.52 4.82
4 3 2 75.85 5.55
-4 3 -2 72.05 4.74
4 3 2 68.78 4.77
4 3 2 78.62 4.9
4 3 2 80.85 5.51
4 3 2 76.15 5.46
4 3 2 76.13 5.05
-4 3 -2 79.41 5.35
-4 3 -2 72.17 4.66
-4 3 -2 74.18 4.85
5 3 2 5.05 0.55
-5 3 -2 5.33 0.49
-5 3 -2 4.57 0.6
-5 3 -2 4.13 0.44
5 3 2 4.52 0.43
5 3 2 4.54 0.47
5 3 2 4.05 0.53
5 3 2 4.11 0.52
5 3 2 4.91 0.49
5 3 2 5.05 0.48
-5 3 -2 4.35 0.59
5 3 2 4.67 0.45
-5 3 -2 4.35 0.49
5 3 2 4.79 0.47
-5 3 -2 4.67 0.52
-6 3 -2 33.88 2.26
-6 3 -2 38.65 2.38
-6 3 -2 33.04 2.25
6 3 2 35.88 2.33
-6 3 -2 39.75 2.59
6 3 2 36.65 2.3
6 3 2 35.29 2.28
6 3 2 34.78 2.45
6 3 2 32.01 2.43
-6 3 -2 30.22 2.19
6 3 2 36.84 2.42
6 3 2 34.64 2.35
-6 3 -2 37.09 2.65
7 -3 2 2.56 0.24
7 -3 2 2.53 0.25
7 3 2 2.47 0.24
-7 3 -2 2.59 0.32
7 3 2 2.02 0.24
-7 3 -2 2.4 0.27
7 3 2 2.21 0.27
5 4 -2 0.08 0.14
-5 4 2 0.08 0.13
5 4 -2 -0.05 0.09
5 4 -2 -0.06 0.1
-5 4 2 0.13 0.13
5 4 -2 0.23 0.14
4 4 -2 11.12 0.89
-4 4 2 10.25 0.95
4 4 -2 13.04 0.94
-4 4 2 12.2 0.81
4 4 -2 11.13 0.94
4 4 -2 13.27 1
-4 4 2 11.89 0.9
4 4 -2 11.86 0.88
-4 4 2 12.86 0.9
-4 4 2 10.62 0.83
4 4 -2 13.56 0.88
-4 4 2 12.95 0.93
-4 4 2 12.17 0.88
4 4 -2 12.13 0.9
4 4 -2 11.07 0.88
4 4 -2 14.24 1.02
3 4 -2 19.71 1.38
3 4 -2 20.1 1.4
3 4 -2 19.11 1.45
3 4 -2 20.28 1.39
3 4 -2 23.31 1.61
3 4 -2 22.16 1.44
-3 4 2 20.05 1.41
-3 4 2 16.67 1.36
-3 4 2 20.61 1.34
3 4 -2 20.09 1.38
-3 4 2 17.7 1.36
3 4 -2 19.76 1.41
-3 4 2 20.02 1.44
-3 4 2 19.08 1.51
-3 4 2 17.87 1.41
3 4 -2 22.07 1.45
3 4 -2 22.95 1.6
-3 4 2 18.99 1.27
3 4 -2 17.57 1.47
3 4 -2 22.67 1.61
-2 4 2 0.2 0.17
2 4 -2 0.14 0.18
2 4 -2 0.23 0.2
2 4 -2 0.6 0.2
2 4 -2 0.26 0.17
2 4 -2 0.14 0.17
-2 4 2 0.2 0.17
2 4 -2 0.25 0.16
2 4 -2 0.29 0.16
2 4 -2 0.19 0.2
-2 4 2 0.12 0.17
-2 4 2 0.46 0.18
-2 4 2 0.49 0.27
2 4 -2 0.15 0.17
2 4 -2 0.79 0.23
2 4 -2 1.11 0.26
-2 4 2 0.09 0.18
-2 4 2 0.14 0.21
-2 4 2 0.35 0.2
-2 4 2 0.09 0.16
2 4 -2 0.42 0.24
2 4 -2 0.57 0.19
2 4 -2 0.4 0.19
-2 4 2 0.21 0.23
1 4 -2 9.85 0.74
-1 4 2 8.11 0.71
1 4 -2 9.14 0.79
1 4 -2 9.32 0.82
1 4 -2 8.81 0.72
-1 4 2 9.42 0.71
1 4 -2 8.8 0.71
-1 4 2 7.77 0.68
1 4 -2 9.75 0.74
1 4 -2 8.29 0.71
-1 4 2 8.34 0.73
1 4 -2 8.11 0.79
-1 4 2 9.22 0.77
-1 4 2 8.93 0.74
1 4 -2 8.53 0.7
1 4 -2 9.27 0.74
1 4 -2 9.57 0.66
-1 4 2 8.54 0.71
-1 4 2 8.34 0.8
1 4 -2 10.48 0.74
1 4 -2 7.78 0.79
-1 4 2 7.9 0.76
-1 4 2 8.63 0.67
1 4 -2 8.81 0.73
1 4 -2 8.31 0.69
1 4 -2 9.19 0.73
-1 4 2 8.47 0.8
0 4 -2 43.01 3.24
0 4 2 42.37 3.28
0 4 2 45.41 3.31
0 4 2 40.52 2.87
0 4 2 44.1 2.78
0 4 -2 45.61 2.83
0 4 2 42.68 2.81
0 4 2 44.7 2.92
0 4 2 38.16 2.9
0 4 -2 48.22 2.93
0 4 -2 44.83 3.29
0 4 -2 40.23 3.28
0 4 2 43.25 3.34
0 4 2 49.39 2.83
0 4 -2 48.17 2.94
0 4 -2 39.18 2.84
0 4 2 36.52 2.98
0 4 -2 47.85 3.15
0 4 -2 46.25 2.92
0 4 -2 48.41 2.81
0 4 -2 42.74 2.87
0 4 -2 48.27 2.64
0 4 2 46.3 2.89
0 4 -2 42.42 3.32
0 4 -2 44.37 2.83
0 4 -2 44.46 2.79
0 4 2 43.49 2.65
1 4 2 0.34 0.17
1 4 2 0.18 0.16
1 4 2 0.09 0.21
1 4 2 0.24 0.16
-1 4 -2 0.02 0.21
1 4 2 0.16 0.17
-1 4 -2 0.25 0.19
-1 4 -2 0.25 0.19
1 4 2 0.22 0.17
-1 4 -2 0.04 0.21
1 4 2 0.13 0.18
-1 4 -2 0.41 0.18
1 4 2 0.16 0.18
-1 4 -2 0.17 0.18
1 4 2 0.61 0.19
-1 4 -2 0.49 0.22
1 4 2 0.42 0.19
1 4 2 0.48 0.19
-1 4 -2 0.32 0.17
-1 4 -2 0.03 0.15
-1 4 -2 0.28 0.18
-1 4 -2 0.18 0.15
1 4 2 -0.03 0.16
-1 4 -2 0.26 0.18
1 4 2 0.44 0.18
-1 4 -2 0.25 0.23
-1 4 -2 -0.03 0.23
1 4 2 0.56 0.18
-1 4 -2 0.19 0.21
2 4 2 37.92 2.6
2 4 2 44.87 3.04
-2 4 -2 39.29 2.53
2 4 2 39.78 2.74
-2 4 -2 39.69 2.57
2 4 2 39.41 2.97
2 4 2 36.02 2.97
2 4 2 44.02 2.54
2 4 2 43.71 2.64
-2 4 -2 42.96 2.89
2 4 2 38.77 2.63
2 4 2 33.97 2.34
2 4 2 40.75 2.61
-2 4 -2 43.76 2.69
-2 4 -2 38.83 2.62
-2 4 -2 39.6 2.97
-2 4 -2 38.69 2.51
-2 4 -2 38.57 2.38
2 4 2 34.44 2.55
2 4 2 43.9 2.63
-2 4 -2 36.85 2.62
2 4 2 38.91 2.68
-2 4 -2 38.79 2.56
3 4 2 8.76 0.8
-3 4 -2 10.29 0.85
3 4 2 9.51 0.81
-3 4 -2 10.71 0.8
-3 4 -2 9.46 0.92
3 4 2 10.49 0.83
3 4 2 9.98 0.89
3 4 2 11.76 0.9
3 4 2 10.78 0.79
3 4 2 12.38 0.79
-3 4 -2 10.87 0.92
3 4 2 8.49 0.73
-3 4 -2 10.01 0.79
-3 4 -2 10.39 0.7
-3 4 -2 10.57 0.77
3 4 2 10.53 0.77
3 4 2 8.6 0.77
3 4 2 12.23 0.92
-3 4 -2 9.67 0.73
3 4 2 8.72 0.79
4 4 2 1.29 0.24
-4 4 -2 1.08 0.22
4 4 2 0.99 0.23
4 4 2 0.67 0.23
4 4 2 1.57 0.23
4 4 2 1.13 0.23
4 4 2 0.87 0.23
-4 4 -2 1 0.22
4 4 2 1.18 0.23
-4 4 -2 0.61 0.24
-4 4 -2 0.94 0.2
4 4 2 1.11 0.2
-4 4 -2 0.91 0.29
-4 4 -2 1.06 0.26
5 4 2 6.49 0.52
-5 4 -2 6.64 0.51
5 4 2 6.63 0.51
-5 4 -2 6.87 0.55
5 4 2 6.46 0.52
9 0 -3 39.99 2.78
9 0 -3 43.28 2.88
-9 0 3 42.29 2.75
-9 0 3 42.42 3.06
9 0 -3 44.83 2.8
-9 0 3 44.13 2.98
-8 0 3 -0.11 0.13
8 0 -3 -0.06 0.12
-8 0 3 0.01 0.13
8 0 -3 0.04 0.11
8 0 -3 -0.06 0.12
8 0 -3 0 0.1
8 0 -3 -0.05 0.12
7 0 -3 70.5 4.46
7 0 -3 65.92 4.31
7 0 -3 61.98 4.3
7 0 -3 67.43 4.31
7 0 -3 62.06 4.38
7 0 -3 65.24 4.04
6 0 -3 0.12 0.12
6 0 -3 0.11 0.12
6 0 -3 0.06 0.15
6 0 -3 0.19 0.13
-6 0 3 0.1 0.14
6 0 -3 0.11 0.15
-6 0 3 0.1 0.15
6 0 -3 0.22 0.18
6 0 -3 0.14 0.12
6 0 -3 0.03 0.11
6 0 -3 0.36 0.18
-6 0 3 0.14 0.14
-6 0 3 0.17 0.14
6 0 -3 0.07 0.12
6 0 -3 0.02 0.15
-6 0 3 0.02 0.13
5 0 -3 21.51 1.39
5 0 -3 17.64 1.39
-5 0 3 21.94 1.64
-5 0 3 19.77 1.67
5 0 -3 19.14 1.44
-5 0 3 21.66 1.6
5 0 -3 21.44 1.5
5 0 -3 20.86 1.46
5 0 -3 21.21 1.38
5 0 -3 23.87 1.91
-5 0 3 23.61 1.76
5 0 -3 20.24 1.48
-5 0 3 22.33 1.71
5 0 -3 22.22 1.82
5 0 -3 19.26 1.87
-5 0 3 22.54 1.64
-5 0 3 21.71 1.69
5 0 -3 22.22 1.47
-4 0 3 -0.03 0.07
4 0 -3 0.01 0.08
-4 0 3 -0.02 0.08
4 0 -3 0 0.07
4 0 -3 0.11 0.1
4 0 -3 -0.08 0.04
-4 0 3 -0.04 0.07
4 0 -3 0.06 0.1
-4 0 3 0.04 0.07
-4 0 3 0.01 0.09
-4 0 3 0.02 0.09
-4 0 3 -0.05 0.07
3 0 -3 607.37 47.25
3 0 -3 625.03 48.71
-3 0 3 613.65 46.3
-3 0 3 626.11 43.65
-3 0 3 628.25 45.4
-3 0 3 596.76 45.64
3 0 -3 603.1 51.12
-3 0 3 651.55 45.45
3 0 -3 639.55 50.44
-3 0 3 648.92 44.11
3 0 -3 564.32 52.01
-3 0 3 647.26 43.6
2 0 -3 -0.25 0.04
-2 0 3 -0.27 0.04
2 0 -3 -0.28 0.04
-2 0 3 -0.22 0.05
-2 0 3 -0.22 0.05
2 0 -3 -0.28 0.02
-2 0 3 -0.26 0.05
-2 0 3 -0.26 0.04
-2 0 3 -0.2 0.04
2 0 -3 -0.3 0.04
2 0 -3 -0.26 0.02
2 0 -3 -0.27 0.04
0 0 -3 0 0.03
0 0 -3 -0.02 0.03
0 0 3 0.06 0.03
0 0 -3 0.01 0.03
0 0 -3 -0.02 0.01
0 0 3 0 0.02
0 0 -3 0.02 0.04
0 0 -3 0.01 0.02
0 0 3 0.15 0.04
0 0 -3 -0.02 0.02
0 0 3 0.01 0.03
0 0 3 0.01 0.03
0 0 -3 -0.01 0.03
0 0 3 -0.02 0.02
0 0 3 0.13 0.04
0 0 3 -0.02 0.02
-1 0 -3 0.05 0.12
-1 0 -3 -0.24 0.09
-1 0 -3 -0.21 0.1
-1 0 -3 0.11 0.11
1 0 3 -0.29 0.09
1 0 3 -0.22 0.1
1 0 3 -0.08 0.09
1 0 3 -0.12 0.11
-1 0 -3 -0.44 0.09
-2 0 -3 -0.19 0.04
-2 0 -3 -0.22 0.06
-2 0 -3 -0.2 0.05
2 0 3 -0.08 0.07
-2 0 -3 -0.18 0.05
2 0 3 -0.09 0.06
-2 0 -3 -0.13 0.07
2 0 3 -0.2 0.04
2 0 3 0.01 0.06
-2 0 -3 -0.15 0.06
2 0 3 -0.22 0.05
2 0 3 0.04 0.07
-2 0 -3 -0.18 0.06
-2 0 -3 -0.19 0.05
2 0 3 -0.08 0.05
-3 0 -3 312.77 21.32
3 0 3 322.26 21.53
-3 0 -3 304.71 20.94
-3 0 -3 298.58 20.68
-3 0 -3 260.43 21.52
3 0 3 284.68 23.08
3 0 3 322.88 22.42
-3 0 -3 280.47 21.95
3 0 3 324.99 22.86
-3 0 -3 297.93 20.72
3 0 3 257.37 24.21
3 0 3 255.89 24.63
-3 0 -3 301.84 18.96
3 0 3 291.23 23.9
-4 0 -3 -0.07 0.05
-4 0 -3 0.04 0.12
4 0 3 0.04 0.1
4 0 3 0.16 0.12
-4 0 -3 0 0.08
4 0 3 -0.06 0.04
-4 0 -3 -0.03 0.09
-4 0 -3 0.01 0.1
4 0 3 0.02 0.08
-4 0 -3 0.01 0.08
4 0 3 0.17 0.11
4 0 3 0.08 0.11
-4 0 -3 0.04 0.11
-4 0 -3 -0.01 0.08
-5 0 -3 526.93 41.14
5 0 3 500.93 34.91
5 0 3 616.47 42.05
5 0 3 555.85 40.35
5 0 3 578.75 33.68
-5 0 -3 531.5 38.74
-5 0 -3 563.85 38.82
5 0 3 598.08 44.85
5 0 3 521.67 43.28
5 0 3 528.6 34.44
5 0 3 522.59 34.86
-5 0 -3 549.8 35.53
-5 0 -3 569.63 39.23
-6 0 -3 0.19 0.16
-6 0 -3 -0.07 0.15
6 0 3 0.07 0.12
-6 0 -3 0 0.11
6 0 3 -0.07 0.09
6 0 3 0.24 0.17
-6 0 -3 0.12 0.19
6 0 3 0.01 0.14
6 0 3 0.02 0.12
6 0 3 0.04 0.17
6 0 3 0.02 0.12
6 0 3 -0.05 0.09
-6 0 -3 -0.07 0.12
6 0 3 0.1 0.12
6 0 3 -0.01 0.12
7 0 3 4.61 0.47
7 0 3 4.37 0.43
-7 0 -3 3.85 0.42
7 0 3 4.86 0.44
7 0 3 3.99 0.39
7 0 3 3.69 0.4
7 0 3 4.37 0.45
-8 0 -3 -0.02 0.14
-8 0 -3 0.26 0.13
8 0 3 0.35 0.14
8 0 3 0.08 0.13
-8 0 -3 0.14 0.15
8 0 3 0.43 0.17
8 0 3 0.32 0.15
8 0 3 0.22 0.13
8 0 3 -0.12 0.1
-8 0 -3 0.16 0.15
-8 0 -3 0 0.13
-8 0 -3 0.25 0.19
-9 0 -3 13.87 1.06
9 0 3 14.48 1
9 0 3 13.76 0.99
-9 0 -3 14.01 0.93
8 -1 -3 3.31 0.36
8 -1 -3 4.21 0.39
8 -1 -3 3.84 0.38
8 -1 -3 4.13 0.35
8 -1 -3 4.09 0.39
8 1 -3 4 0.42
-8 1 3 4.19 0.45
8 1 -3 4.19 0.41
8 1 -3 4.04 0.41
-8 1 3 3.94 0.36
-8 1 3 4.48 0.45
8 1 -3 4.1 0.4
-8 1 3 3.98 0.39
-8 1 3 4.37 0.42
8 1 -3 3.09 0.34
8 1 -3 3.91 0.38
7 -1 -3 28.09 1.98
7 -1 -3 31.47 2.12
7 -1 -3 28.36 2.13
7 -1 -3 33.37 2.19
7 -1 -3 31.75 1.99
7 -1 -3 32.81 2.12
7 1 -3 33.3 2.17
7 1 -3 30.44 2.13
7 1 -3 32.14 2.22
-7 1 3 29.53 1.99
-7 1 3 33.57 2.15
-7 1 3 31.29 2.04
7 1 -3 30.25 2.18
-7 1 3 30.46 2.04
7 1 -3 28.31 2.01
-7 1 3 34.11 2.32
7 1 -3 27.23 1.99
-7 1 3 32.98 2.36
7 1 -3 31.46 2.16
6 -1 -3 7.02 0.54
6 -1 -3 7.6 0.6
-6 -1 3 7.24 0.66
6 -1 -3 7.22 0.73
-6 -1 3 5.68 0.62
-6 -1 3 6.68 0.69
6 -1 -3 5.05 0.51
-6 -1 3 6.15 0.66
6 -1 -3 6.68 0.75
-6 -1 3 6.84 0.7
-6 -1 3 6.15 0.66
6 -1 -3 6.91 0.75
6 -1 -3 6.8 0.57
6 -1 -3 5.48 0.71
6 1 -3 7.14 0.61
6 1 -3 6.81 0.62
-6 1 3 7.09 0.59
-6 1 3 6.98 0.57
6 1 -3 6.91 0.63
-6 1 3 8.18 0.72
6 1 -3 6.95 0.62
6 1 -3 5.95 0.55
-6 1 3 6.42 0.67
6 1 -3 6.79 0.59
6 1 -3 6.43 0.57
6 1 -3 6.49 0.54
-6 1 3 6.03 0.68
-6 1 3 6.64 0.7
-6 1 3 7.53 0.75
-5 -1 3 169.74 11.78
5 -1 -3 151.64 13.44
-5 -1 3 159.31 11.82
5 -1 -3 165.38 13.24
-5 -1 3 162.61 11.75
5 -1 -3 167.96 12.61
-5 -1 3 162.44 11.4
5 -1 -3 171.87 13.06
-5 -1 3 159.22 11.26
-5 -1 3 170.32 11.29
-5 -1 3 165.85 11.99
5 1 -3 153.87 10.5
5 1 -3 138.72 9.99
-5 1 3 164.84 11.44
5 1 -3 160.03 10.41
5 1 -3 150.19 9.58
-5 1 3 164.37 12.04
-5 1 3 155.91 9.76
5 1 -3 160.76 10.21
5 1 -3 156.21 10.17
5 1 -3 154.48 9.79
-5 1 3 157.64 11.78
5 1 -3 141.97 9.68
5 1 -3 146.38 10.24
-4 -1 3 4.67 0.43
-4 -1 3 4.4 0.44
4 -1 -3 4.63 0.46
-4 -1 3 4.14 0.38
4 -1 -3 3.83 0.4
4 -1 -3 4.27 0.42
4 -1 -3 5.04 0.48
-4 -1 3 4.03 0.4
4 -1 -3 4.14 0.47
-4 -1 3 4.19 0.41
4 -1 -3 4.83 0.49
-4 -1 3 4.1 0.42
4 1 -3 2.95 0.37
4 1 -3 3.72 0.36
4 1 -3 3.81 0.39
-4 1 3 5.12 0.47
4 1 -3 3.4 0.37
4 1 -3 4.03 0.38
4 1 -3 3.69 0.39
-4 1 3 4.33 0.46
4 1 -3 3.38 0.37
4 1 -3 3.51 0.38
4 1 -3 3.81 0.35
-4 1 3 4.56 0.44
-4 1 3 4.84 0.49
4 1 -3 3.47 0.35
3 -1 -3 237.44 18.81
-3 -1 3 236.61 16.94
3 -1 -3 206.99 16.93
3 -1 -3 234.68 19.08
3 -1 -3 232.51 17.61
3 -1 -3 245.39 18.18
-3 -1 3 202.97 14.87
-3 -1 3 237.15 16.26
-3 -1 3 238.37 16.96
-3 -1 3 219.55 16.26
3 -1 -3 224.79 15.88
-3 -1 3 240.19 17.27
3 -1 -3 238.19 19.42
-3 -1 3 231.52 16.45
3 -1 -3 228.45 17.25
-3 1 3 250.86 16.31
-3 1 3 220.04 17.3
-3 1 3 231.43 16.48
-2 -1 3 0.69 0.12
2 -1 -3 0.69 0.15
-2 -1 3 0.7 0.1
2 -1 -3 0.66 0.14
2 -1 -3 0.64 0.17
2 -1 -3 0.92 0.13
-2 -1 3 0.77 0.13
2 -1 -3 0.63 0.14
-2 -1 3 0.78 0.1
-2 -1 3 0.62 0.11
2 -1 -3 0.55 0.13
-2 -1 3 0.65 0.15
2 -1 -3 0.9 0.12
2 -1 -3 0.68 0.13
-2 -1 3 0.61 0.15
-2 1 3 0.79 0.18
-2 1 3 0.45 0.1
-2 1 3 0.41 0.09
-2 1 3 0.56 0.12
-2 1 3 0.86 0.15
-2 1 3 0.8 0.18
-2 1 3 0.6 0.15
-2 1 3 1.13 0.16
1 -1 -3 311.94 23.59
1 -1 -3 317.79 24.77
1 -1 -3 303.25 22.02
1 -1 -3 313.4 25.21
1 -1 -3 300.41 24.4
1 -1 -3 309 22.41
1 -1 -3 302.87 20.64
-1 1 3 257.72 23.31
-1 1 3 312.77 22.02
-1 1 3 308.65 21.99
-1 1 3 319.48 21.13
-1 1 3 307.64 22.44
-1 1 3 283.39 22.1
-1 1 3 259.89 22.1
0 -1 -3 238.82 19.44
0 -1 -3 229.35 16.99
0 -1 -3 232.19 19.09
0 -1 -3 223.66 17.28
0 -1 -3 236.51 15.93
0 -1 -3 213.04 18.18
0 -1 -3 232.36 16.82
0 1 3 209.01 18
0 1 3 255.06 17.07
0 1 3 253.85 16.98
0 1 3 259.11 17
0 1 3 228.15 17.07
0 1 3 205.23 16.94
-1 -1 -3 173.12 11.91
1 -1 3 186.77 14.31
1 -1 3 184.31 13.63
-1 -1 -3 174.5 12.21
1 -1 3 175.08 12.73
-1 -1 -3 173.65 12.69
-1 -1 -3 159.65 14.5
1 -1 3 167.36 13.45
1 -1 3 174.41 14.1
1 -1 3 174.35 12.67
1 -1 3 171.43 13.2
-1 -1 -3 172.34 12.91
-1 -1 -3 176.59 12.57
-1 -1 -3 175.89 11.18
1 1 3 152.85 13.19
1 1 3 162.52 12.67
1 1 3 154.46 14.06
-1 1 -3 167.74 12.33
1 1 3 171.65 13.47
1 1 3 187.28 12.77
1 1 3 195.19 12.78
-1 1 -3 176.33 12.18
-2 -1 -3 10.28 0.87
-2 -1 -3 12.03 0.88
2 -1 3 11.18 0.92
2 -1 3 11.47 1
2 -1 3 12.14 0.93
2 -1 3 12.51 1.05
2 -1 3 11.76 0.97
-2 -1 -3 11.08 0.83
2 -1 3 11.87 1.02
-2 -1 -3 11.14 0.89
-2 -1 -3 11.3 0.88
-2 -1 -3 11.67 0.88
2 -1 3 12.5 0.89
-2 -1 -3 11.77 0.8
-2 1 -3 9.39 0.89
-2 1 -3 10.7 0.86
-2 1 -3 10.34 0.87
-2 1 -3 10.28 0.89
2 1 3 11.42 0.9
2 1 3 10.63 0.92
2 1 3 9.64 0.97
2 1 3 11.79 0.96
-2 1 -3 10.62 0.89
-3 -1 -3 347.06 22.58
-3 -1 -3 320.15 24.02
3 -1 3 348.58 27.18
3 -1 3 365.07 25.62
-3 -1 -3 363.14 24.67
3 -1 3 374.5 26.69
3 -1 3 331.53 28.88
3 -1 3 361.38 27.52
3 -1 3 376.64 28.49
-3 -1 -3 370.52 24.62
3 -1 3 361.63 29.39
-3 -1 -3 356.87 24.92
3 -1 3 340.29 26.11
-3 -1 -3 364.22 26.15
-3 -1 -3 348.02 25.39
-3 1 -3 359.19 24.7
-3 1 -3 335.33 24.95
3 1 3 312.19 28.45
3 1 3 362.35 25.64
3 1 3 346.17 26.69
-3 1 -3 307.7 24.62
4 -1 3 0.17 0.12
4 -1 3 0.13 0.09
4 -1 3 0.18 0.13
4 -1 3 0.08 0.1
-4 -1 -3 0.31 0.13
-4 -1 -3 0.29 0.14
-4 -1 -3 0.14 0.11
-4 -1 -3 0.27 0.13
-4 -1 -3 0.42 0.13
-4 -1 -3 0.28 0.14
4 -1 3 0.51 0.17
4 -1 3 0.04 0.1
4 -1 3 0.17 0.12
-4 -1 -3 0.18 0.1
-4 1 -3 0.08 0.11
4 1 3 0.09 0.1
-4 1 -3 0.39 0.18
4 1 3 0.33 0.18
-4 1 -3 0.1 0.14
4 1 3 -0.01 0.15
-4 1 -3 0.49 0.18
-4 1 -3 0.23 0.17
4 1 3 0.39 0.13
4 1 3 0.42 0.16
4 1 3 0.29 0.17
-4 1 -3 0.18 0.14
4 1 3 0.17 0.11
4 1 3 -0.02 0.07
4 1 3 0.18 0.11
4 1 3 0.14 0.09
4 1 3 0.22 0.11
-4 1 -3 0.55 0.2
-4 1 -3 0.08 0.13
-4 1 -3 0.22 0.17
4 1 3 0.1 0.12
-4 1 -3 0.21 0.15
-4 1 -3 0.34 0.17
-5 -1 -3 12.69 1.05
5 -1 3 12.87 1.17
-5 -1 -3 12.74 1.02
-5 -1 -3 12.19 1.08
-5 -1 -3 12.13 1.04
5 -1 3 13.26 1.1
5 -1 3 12.48 1.13
5 -1 3 11.25 1.16
-5 -1 -3 11.95 1.05
-5 -1 -3 11.93 0.9
5 -1 3 11.76 1.17
5 -1 3 11.66 1.01
-5 -1 -3 13.52 1.05
5 1 3 11.67 1.09
5 1 3 11.81 0.94
5 1 3 12.06 0.93
5 1 3 12.48 0.99
5 1 3 12.57 0.9
-5 1 -3 13.52 1.1
5 1 3 12.76 0.9
-5 1 -3 13.41 1.08
-5 1 -3 12.3 0.89
-5 1 -3 12.02 0.99
-5 1 -3 12.73 0.9
5 1 3 11.96 0.96
5 1 3 11.59 0.87
-5 1 -3 12.69 0.92
-5 1 -3 12.78 1.04
-5 1 -3 13.44 1.07
-5 1 -3 11.37 0.9
5 1 3 11.64 0.86
5 1 3 10.16 1.13
-5 1 -3 11.29 0.85
-6 -1 -3 4.83 0.59
-6 -1 -3 4.76 0.62
6 -1 3 5.36 0.61
6 -1 3 5.21 0.67
6 -1 3 5.09 0.63
-6 -1 -3 5.24 0.59
-6 -1 -3 5.82 0.62
6 -1 3 4.98 0.65
-6 -1 -3 4.51 0.56
-6 -1 -3 5.07 0.59
6 1 3 5.25 0.49
6 1 3 5.92 0.55
-6 1 -3 5.97 0.64
6 1 3 5.8 0.5
-6 1 -3 6.06 0.65
-6 1 -3 6.51 0.56
-6 1 -3 6.38 0.6
-6 1 -3 5.67 0.61
-6 1 -3 5.35 0.5
-6 1 -3 5.98 0.62
-6 1 -3 5.98 0.51
6 1 3 5.74 0.54
6 1 3 5.96 0.58
6 1 3 4.69 0.65
6 1 3 5.91 0.56
-6 1 -3 6.01 0.54
6 1 3 5.91 0.51
-6 1 -3 6.88 0.54
7 -1 3 85.56 5.28
7 -1 3 84.37 5.32
7 -1 3 76.21 5.12
7 -1 3 68.71 4.91
7 -1 3 76.21 5.13
7 -1 3 82.41 5.18
-7 1 -3 84.96 5.69
-7 1 -3 73.05 4.87
7 1 3 72.08 5.14
7 1 3 84.01 5.23
7 1 3 76.91 5.34
-7 1 -3 78.57 4.81
7 1 3 75.9 5.06
7 1 3 85.35 5.32
-7 1 -3 85.08 4.98
-7 1 -3 79.17 5.51
7 1 3 82.78 4.98
-7 1 -3 71.36 5.07
8 -1 3 0.25 0.12
8 -1 3 0.36 0.16
8 -1 3 0.3 0.13
8 -1 3 0.22 0.13
8 -1 3 0.26 0.12
8 1 3 0.18 0.14
8 1 3 0.41 0.18
8 1 3 0.29 0.15
8 1 3 0.29 0.13
-8 1 -3 0.35 0.17
-8 1 -3 0.14 0.15
8 1 3 0.4 0.15
-8 1 -3 0.31 0.15
-8 1 -3 0.08 0.12
-8 1 -3 0.16 0.13
8 -2 -3 3.37 0.31
8 -2 -3 3.42 0.31
8 -2 -3 3.34 0.28
8 2 -3 3.43 0.34
-8 2 3 3.19 0.31
-8 2 3 3.7 0.34
8 2 -3 3.54 0.33
8 2 -3 3 0.3
8 2 -3 2.81 0.31
8 2 -3 3.23 0.33
-8 2 3 3.24 0.35
7 -2 -3 46.92 2.99
7 -2 -3 43.23 3.07
7 -2 -3 43.85 2.82
7 -2 -3 42.41 2.83
7 -2 -3 47.22 3.01
-7 2 3 44.3 2.84
7 2 -3 42.97 2.88
7 2 -3 47.78 3.06
7 2 -3 46.76 3.11
7 2 -3 40.44 2.92
7 2 -3 46.92 3.05
-7 2 3 50.5 3.04
-7 2 3 45.82 3.32
-7 2 3 48.73 3.27
7 2 -3 41.87 3.03
7 2 -3 45.1 3.14
-7 2 3 47.76 2.91
6 2 -3 47.72 3.39
-6 2 3 51.27 3.66
-6 2 3 54.85 3.6
6 2 -3 50.78 3.33
-6 2 3 49.16 3.13
6 2 -3 46.27 3.12
6 2 -3 46.37 3.21
6 2 -3 48.66 3.36
-6 2 3 53.14 3.33
6 2 -3 48.49 3.16
6 2 -3 43.24 3.23
6 2 -3 51.28 3.37
6 2 -3 48.9 3.44
-6 2 3 52.25 3.2
-6 2 3 48.73 3.24
-5 -2 3 3.08 0.48
-5 -2 3 2.02 0.38
5 -2 -3 2.69 0.43
5 -2 -3 2.56 0.36
5 -2 -3 2.25 0.38
5 -2 -3 2.5 0.39
-5 -2 3 2.09 0.37
5 -2 -3 2.98 0.54
-5 -2 3 2.67 0.45
-5 -2 3 2.65 0.41
5 2 -3 2.64 0.3
5 2 -3 2.47 0.38
-5 2 3 2.19 0.46
5 2 -3 2.4 0.44
-5 2 3 2.19 0.5
-5 2 3 3.8 0.44
-5 2 3 2.84 0.4
5 2 -3 2.12 0.44
5 2 -3 3.1 0.5
-5 2 3 2.94 0.53
5 2 -3 2.59 0.38
-5 2 3 3.28 0.37
5 2 -3 1.94 0.3
5 2 -3 2.63 0.43
-5 2 3 3.66 0.54
-5 2 3 3.35 0.55
5 2 -3 2.78 0.42
5 2 -3 2.37 0.34
-5 2 3 2.88 0.35
5 2 -3 2.05 0.34
-4 -2 3 1.85 0.29
4 -2 -3 1.2 0.25
4 -2 -3 1.21 0.25
4 -2 -3 1.19 0.24
-4 -2 3 1.41 0.29
4 -2 -3 1.95 0.39
4 -2 -3 1.3 0.28
-4 -2 3 1.94 0.34
-4 -2 3 1.56 0.28
4 -2 -3 1.35 0.31
-4 -2 3 1.33 0.27
4 2 -3 0.88 0.28
4 2 -3 1.26 0.24
-4 2 3 1.86 0.34
4 2 -3 1.42 0.25
-4 2 3 1.71 0.38
-4 2 3 1.26 0.35
4 2 -3 1.94 0.33
4 2 -3 0.99 0.21
4 2 -3 0.94 0.27
4 2 -3 1.12 0.22
-4 2 3 1.83 0.39
4 2 -3 1.38 0.25
-4 2 3 0.86 0.3
4 2 -3 1.64 0.35
4 2 -3 1.24 0.21
4 2 -3 1.37 0.21
4 2 -3 1.5 0.24
-4 2 3 1.92 0.37
4 2 -3 1.2 0.23
4 2 -3 1.51 0.27
4 2 -3 1.24 0.23
-4 2 3 1.5 0.24
-4 2 3 1.23 0.22
-4 2 3 1.35 0.29
4 2 -3 1.6 0.3
4 2 -3 1 0.28
4 2 -3 1.27 0.28
4 2 -3 1.21 0.21
3 -2 -3 88.58 6.68
3 -2 -3 83.01 6.21
-3 -2 3 83.43 5.64
-3 -2 3 86.42 5.84
-3 -2 3 88.55 5.94
3 -2 -3 86.65 6.55
3 -2 -3 82.54 5.93
3 -2 -3 82.96 5.82
-3 -2 3 85.07 5.59
3 -2 -3 82.4 5.46
-3 -2 3 77.79 5.56
3 2 -3 78.46 4.51
3 2 -3 75.25 4.47
3 2 -3 76.23 4.46
3 2 -3 82.54 4.86
-3 2 3 71.58 4.95
3 2 -3 69.17 4.79
3 2 -3 86.54 4.68
3 2 -3 78.11 4.65
3 2 -3 76.58 4.5
-3 2 3 73.77 4.82
3 2 -3 82.39 4.95
-3 2 3 73.7 4.76
-3 2 3 70.41 4.95
3 2 -3 77.26 4.5
3 2 -3 81.19 5.07
3 2 -3 74.82 4.89
3 2 -3 82.37 4.97
3 2 -3 72.73 4.89
-3 2 3 68.19 5.37
3 2 -3 76.45 4.76
3 2 -3 76.22 4.74
3 2 -3 72.85 5.07
-3 2 3 66.59 5.81
3 2 -3 76.34 5.66
3 2 -3 81.39 5.1
-3 2 3 67.88 5.52
-3 2 3 68.08 5.96
3 2 -3 74.28 4.4
3 2 -3 73.39 5.58
3 2 -3 81.95 5.18
3 2 -3 80.65 5.23
3 2 -3 77.44 4.94
-3 2 3 73.22 4.48
3 2 -3 77.88 5.13
-3 2 3 73.78 4.75
-3 2 3 69.27 4.99
3 2 -3 81.16 5.05
3 2 -3 78.91 5.61
2 -2 -3 9.8 0.8
-2 -2 3 9.01 0.67
2 -2 -3 10.02 0.76
-2 -2 3 9.88 0.76
-2 -2 3 10.23 0.76
2 -2 -3 9.97 0.82
-2 -2 3 9.73 0.75
-2 -2 3 8.1 0.68
2 -2 -3 10.25 0.88
-2 -2 3 8.84 0.74
-2 -2 3 9.88 0.81
2 -2 -3 9.91 0.81
2 -2 -3 10.09 0.91
-2 2 3 8.67 0.68
2 2 -3 9.44 0.63
2 2 -3 8.71 0.69
2 2 -3 8.48 0.75
2 2 -3 9.15 0.65
2 2 -3 8.7 0.72
2 2 -3 8.75 0.61
2 2 -3 8.74 0.73
2 2 -3 9.23 0.71
2 2 -3 9.2 0.67
-2 2 3 8.57 0.68
2 2 -3 8.98 0.66
2 2 -3 9.03 0.66
2 2 -3 8.73 0.66
2 2 -3 9.13 0.67
2 2 -3 8.44 0.75
2 2 -3 8.09 0.75
2 2 -3 9.12 0.64
2 2 -3 9.23 0.65
2 2 -3 9.73 0.68
2 2 -3 9.57 0.65
2 2 -3 9.32 0.63
2 2 -3 8.67 0.71
2 2 -3 8.88 0.63
-2 2 3 8.17 0.78
-2 2 3 9.1 0.63
2 2 -3 8.51 0.68
2 2 -3 8.85 0.67
2 2 -3 10.35 0.67
2 2 -3 8.81 0.67
2 2 -3 9.66 0.67
-2 2 3 8.12 0.68
-2 2 3 8.2 0.69
2 2 -3 8.69 0.67
2 2 -3 9.03 0.63
2 2 -3 10.14 0.78
2 2 -3 9.39 0.71
2 2 -3 8.53 0.68
2 2 -3 9.1 0.61
2 2 -3 8.79 0.74
2 2 -3 8.78 0.65
2 2 -3 9.19 0.61
2 2 -3 9.31 0.63
-2 2 3 9.6 0.67
-2 2 3 8.59 0.67
2 2 -3 9.26 0.67
2 2 -3 8.69 0.69
-1 -2 3 281.85 20.67
1 -2 -3 296.97 21.07
1 -2 -3 281.54 23.25
1 -2 -3 284.51 23.68
1 -2 -3 255.35 22.12
-1 -2 3 256.94 22.15
-1 -2 3 293.39 19.39
1 -2 -3 300.86 19.42
-1 -2 3 280 21.04
-1 -2 3 286.88 20.47
-1 -2 3 261.86 23.24
-1 -2 3 273.42 23.66
1 -2 -3 304.34 20.5
1 -2 -3 288.79 20.7
0 -2 3 66.89 5.32
0 -2 -3 72.03 4.69
0 -2 -3 66.55 5.67
0 -2 3 63.89 5.23
0 -2 -3 68.48 5.06
0 -2 3 72.5 5.09
0 -2 3 62.84 5.14
0 -2 -3 71.19 4.95
0 -2 -3 70.47 4.99
0 -2 3 61 4.93
0 -2 3 67.07 5.59
0 -2 3 63.67 4.94
0 -2 3 62.98 4.48
0 -2 -3 61.05 5.55
0 -2 3 66.27 5.5
0 -2 3 67.69 5.7
0 -2 -3 74.35 4.41
-1 -2 -3 24.93 1.78
1 -2 3 22.75 1.91
1 -2 3 22.92 1.84
1 -2 3 23.55 2.06
1 -2 3 25.14 1.96
-1 -2 -3 23.01 1.78
-1 -2 -3 23.55 1.74
-1 -2 -3 22.3 1.77
-1 -2 -3 23.04 1.67
-1 -2 -3 22.66 1.58
1 -2 3 20.19 1.81
1 -2 3 23.05 2.01
2 -2 3 8.35 0.76
2 -2 3 9.86 0.9
-2 -2 -3 9.5 0.72
-2 -2 -3 10.06 0.77
2 -2 3 9.87 0.92
2 -2 3 9.47 0.84
-2 -2 -3 10.47 0.78
-2 -2 -3 9.49 0.74
-2 -2 -3 9.89 0.78
2 -2 3 9.72 0.82
-2 -2 -3 9.82 0.7
2 -2 3 9.13 0.83
-2 2 -3 8.95 0.67
-2 2 -3 8.73 0.69
2 2 3 9.1 0.66
-2 2 -3 8.71 0.61
-2 2 -3 9.08 0.68
2 2 3 8.72 0.67
2 2 3 8.84 0.68
-2 2 -3 7.94 0.67
2 2 3 9.02 0.76
-2 2 -3 9.08 0.66
-2 2 -3 8.61 0.69
2 2 3 8.68 0.7
2 2 3 8.37 0.67
2 2 3 8.41 0.68
-2 2 -3 8.63 0.66
-2 2 -3 8.67 0.75
2 2 3 8.29 0.69
2 2 3 8.71 0.76
2 2 3 8.76 0.77
2 2 3 8.35 0.72
-2 2 -3 9.14 0.79
-3 -2 -3 22.31 1.47
-3 -2 -3 22.73 1.63
3 -2 3 21.55 1.72
3 -2 3 21.29 1.82
-3 -2 -3 22.56 1.64
-3 -2 -3 22.67 1.62
3 -2 3 21.96 1.69
-3 -2 -3 20.18 1.62
3 -2 3 23.24 1.73
3 -2 3 22.43 1.94
3 -2 3 21.97 1.89
-3 -2 -3 22.29 1.73
3 -2 3 21.6 1.78
-3 2 -3 20.26 1.44
3 2 3 18.8 1.5
-3 2 -3 20.76 1.63
-3 2 -3 18.64 1.39
-3 2 -3 21.15 1.57
-3 2 -3 20.08 1.37
3 2 3 19.38 1.45
-3 2 -3 20.7 1.37
-3 2 -3 20.65 1.42
3 2 3 20.08 1.4
3 2 3 21.99 1.42
3 2 3 21.78 1.61
3 2 3 20.31 1.48
3 2 3 20.32 1.59
3 2 3 17.47 1.49
3 2 3 20.49 1.44
-3 2 -3 19.79 1.43
-3 2 -3 23.76 1.4
3 2 3 22.2 1.63
3 2 3 20.9 1.48
-3 2 -3 20.25 1.28
3 2 3 18.96 1.38
3 2 3 17.67 1.43
-3 2 -3 20.02 1.39
-4 -2 -3 0.69 0.22
-4 -2 -3 1.01 0.26
-4 -2 -3 1.03 0.25
-4 -2 -3 0.89 0.2
-4 -2 -3 0.57 0.23
4 -2 3 0.58 0.2
4 -2 3 0.55 0.23
4 -2 3 0.59 0.2
4 -2 3 0.87 0.22
4 2 3 0.75 0.18
4 2 3 0.7 0.18
4 2 3 0.72 0.25
4 2 3 0.75 0.21
-4 2 -3 0.69 0.25
-4 2 -3 0.91 0.22
-4 2 -3 0.66 0.26
4 2 3 0.62 0.19
4 2 3 1.45 0.26
-4 2 -3 0.6 0.24
-4 2 -3 0.35 0.24
4 2 3 0.45 0.24
-4 2 -3 0.43 0.18
-4 2 -3 0.71 0.21
4 2 3 0.55 0.18
-4 2 -3 0.64 0.21
4 2 3 0.72 0.25
4 2 3 0.62 0.26
-4 2 -3 0.62 0.22
-4 2 -3 0.27 0.23
5 -2 3 135.21 11.51
-5 -2 -3 141.74 9.94
5 -2 3 115.4 10.36
-5 -2 -3 132.29 9.82
5 -2 3 133.91 11.7
5 -2 3 127.3 11.31
-5 -2 -3 123.87 10.21
-5 -2 -3 136.84 9.82
-5 -2 -3 134.23 10.41
5 -2 3 140.27 10.96
-5 2 -3 133.43 8.39
-5 2 -3 144.83 8.3
5 2 3 142.99 8.74
5 2 3 145.75 8.87
5 2 3 142.1 9.14
-5 2 -3 143.85 9.77
5 2 3 143.55 8.62
-5 2 -3 144.89 8.76
-5 2 -3 149.72 9.48
-5 2 -3 116.85 9.82
5 2 3 146.73 9.02
-5 2 -3 138.26 8.31
-5 2 -3 142.37 8.44
-5 2 -3 151.65 8.56
5 2 3 145.21 8.56
5 2 3 115.1 8.83
5 2 3 147.6 8.99
5 2 3 129.82 9.19
6 2 3 0.12 0.19
-6 2 -3 0.34 0.2
-6 2 -3 0.07 0.22
6 2 3 0.18 0.15
6 2 3 0.19 0.12
-6 2 -3 0 0.14
6 2 3 -0.12 0.15
6 2 3 0.29 0.15
6 2 3 0.18 0.22
6 2 3 0.28 0.2
-6 2 -3 0.37 0.19
-6 2 -3 0.18 0.18
-6 2 -3 0.42 0.26
-6 2 -3 0.16 0.2
6 2 3 0.4 0.19
7 -2 3 18.48 1.3
7 -2 3 15.33 1.24
-7 2 -3 17.09 1.21
-7 2 -3 18.06 1.29
-7 2 -3 19.79 1.28
7 2 3 17.55 1.26
7 2 3 18.28 1.25
7 2 3 20.69 1.35
-7 2 -3 15.83 1.18
-7 2 -3 19.21 1.48
7 2 3 16.81 1.34
-7 2 -3 20.58 1.44
7 2 3 18.3 1.36
7 2 3 18.96 1.27
8 -2 3 4.93 0.4
8 -2 3 5.2 0.42
8 -2 3 5.32 0.44
-8 2 -3 4.74 0.41
8 2 3 5.12 0.43
-8 2 -3 5.84 0.48
8 2 3 5.13 0.41
-8 2 -3 5.12 0.48
8 2 3 5.39 0.45
7 -3 -3 7.87 0.56
7 -3 -3 8.29 0.54
7 3 -3 7.51 0.6
7 3 -3 7.8 0.61
-7 3 3 8.22 0.57
7 3 -3 7.38 0.58
7 3 -3 6.39 0.53
-7 3 3 7.57 0.59
6 3 -3 2.58 0.3
6 3 -3 2.89 0.36
6 3 -3 2.48 0.28
6 3 -3 2.51 0.34
-6 3 3 3.03 0.34
6 3 -3 2.66 0.3
6 3 -3 2.83 0.37
-6 3 3 3.08 0.34
6 3 -3 3.03 0.38
6 3 -3 2.64 0.3
-6 3 3 3.36 0.46
-6 3 3 2.97 0.41
6 3 -3 2.92 0.37
-6 3 3 3 0.37
5 3 -3 67.58 4.16
5 3 -3 59.58 4.04
-5 3 3 67.47 4.17
5 3 -3 67.89 4.29
-5 3 3 65.79 3.82
5 3 -3 62.57 4.13
5 3 -3 68.84 4.35
5 3 -3 66.06 4.49
-5 3 3 71.95 4.35
5 3 -3 67.06 4.22
5 3 -3 63.39 4.34
-5 3 3 68.35 4.24
5 3 -3 59.83 4.33
5 3 -3 61.15 4.73
5 3 -3 63.69 4.43
-5 3 3 65.46 4.08
-5 3 3 59.14 4.7
-5 3 3 66.2 4.63
5 3 -3 66.53 4.34
4 3 -3 3.02 0.34
4 3 -3 2.67 0.34
4 3 -3 2.89 0.37
-4 3 3 2.69 0.43
4 3 -3 2.91 0.35
4 3 -3 2.52 0.33
-4 3 3 2.96 0.43
4 3 -3 2.48 0.44
-4 3 3 3.23 0.39
-4 3 3 2.41 0.44
4 3 -3 1.87 0.4
-4 3 3 2.91 0.48
4 3 -3 3.56 0.4
4 3 -3 2.81 0.43
-4 3 3 2.7 0.36
4 3 -3 2.93 0.37
4 3 -3 2.14 0.37
4 3 -3 2.87 0.35
-4 3 3 3.1 0.54
4 3 -3 2.49 0.37
4 3 -3 2.78 0.37
4 3 -3 3.05 0.38
4 3 -3 3.95 0.47
-4 3 3 3.27 0.49
4 3 -3 3.5 0.56
4 3 -3 2.43 0.38
-3 -3 3 65.39 5.43
-3 -3 3 63.93 5.2
3 -3 -3 69.07 5.54
3 -3 -3 72.33 5.42
-3 -3 3 68.35 5.53
3 -3 -3 66.46 6.21
3 -3 -3 68.17 5.11
-3 -3 3 60.16 5.4
3 -3 -3 70.67 5.46
3 3 -3 76.09 4.48
3 3 -3 73.04 4.62
-3 3 3 67.05 5.15
3 3 -3 74.86 4.58
-3 3 3 72.32 4.48
3 3 -3 76.84 4.78
-3 3 3 74.08 4.23
3 3 -3 70.74 4.76
-3 3 3 65.78 4.53
3 3 -3 74.6 4.59
3 3 -3 74.6 4.65
-3 3 3 73.63 4.72
3 3 -3 75.84 5.25
3 3 -3 71.03 4.74
3 3 -3 73.31 4.21
-3 3 3 71.06 4.63
3 3 -3 75.93 4.87
3 3 -3 72.53 4.51
3 3 -3 76.43 5.31
-3 3 3 64.9 5.02
3 3 -3 68.8 4.58
-3 3 3 71.64 4.47
3 3 -3 78.2 4.56
3 3 -3 74.04 4.44
3 3 -3 78.61 4.81
3 3 -3 76.38 4.73
3 3 -3 69.64 4.12
3 3 -3 73.29 5.23
3 3 -3 69.97 4.9
-3 3 3 70.34 4.66
3 3 -3 77.39 4.63
3 3 -3 72.68 4.17
2 -3 -3 5.8 0.69
2 -3 -3 6.74 0.67
2 -3 -3 6.57 0.7
-2 -3 3 5.22 0.63
-2 -3 3 6.02 0.66
2 -3 -3 5.28 0.75
2 -3 -3 6.07 0.68
-2 -3 3 5.8 0.65
-2 -3 3 5.27 0.66
-2 -3 3 6.05 0.68
2 3 -3 7.11 0.61
-2 3 3 6.09 0.58
-2 3 3 6.47 0.6
2 3 -3 6.81 0.65
-2 3 3 5.99 0.61
-2 3 3 6.94 0.56
2 3 -3 7.52 0.59
-2 3 3 6.17 0.56
-2 3 3 6.77 0.64
2 3 -3 7.14 0.59
-2 3 3 6 0.66
2 3 -3 6.64 0.64
2 3 -3 7.4 0.6
2 3 -3 7.16 0.58
2 3 -3 6.92 0.59
-2 3 3 5.6 0.62
2 3 -3 6.67 0.56
2 3 -3 6.94 0.55
2 3 -3 7.63 0.62
2 3 -3 7 0.55
2 3 -3 7.25 0.67
2 3 -3 6.5 0.6
2 3 -3 7.28 0.63
2 3 -3 7.06 0.6
2 3 -3 7.29 0.67
2 3 -3 6.05 0.58
2 3 -3 7.34 0.6
-2 3 3 6.93 0.58
2 3 -3 7.37 0.65
2 3 -3 7.15 0.6
2 3 -3 7.08 0.65
2 3 -3 7.3 0.6
2 3 -3 7.11 0.57
2 3 -3 7.54 0.54
2 3 -3 6.6 0.57
2 3 -3 7.24 0.64
2 3 -3 6.96 0.65
-2 3 3 6.7 0.62
-2 3 3 6.09 0.65
2 3 -3 6.78 0.64
-1 -3 3 4.55 0.48
1 -3 -3 4.76 0.55
1 -3 -3 4.03 0.53
-1 -3 3 3.65 0.49
-1 -3 3 4.89 0.47
1 -3 -3 4.21 0.53
-1 -3 3 4.35 0.51
1 -3 -3 5.05 0.53
1 -3 -3 4.32 0.49
-1 -3 3 4.62 0.52
1 -3 -3 4.37 0.61
-1 3 3 5.02 0.5
1 3 -3 4.78 0.47
1 3 -3 5.08 0.48
1 3 -3 4.99 0.43
1 3 -3 4.39 0.44
1 3 -3 4.33 0.46
-1 3 3 4.5 0.46
1 3 -3 4.45 0.45
1 3 -3 4.89 0.45
1 3 -3 4.91 0.45
-1 3 3 4.73 0.43
-1 3 3 4.28 0.49
1 3 -3 5.66 0.48
1 3 -3 5.87 0.49
1 3 -3 4.52 0.44
1 3 -3 4.57 0.5
1 3 -3 4.59 0.41
1 3 -3 5.04 0.46
1 3 -3 4.97 0.5
1 3 -3 4.84 0.48
-1 3 3 3.7 0.46
1 3 -3 4.56 0.45
-1 3 3 4.55 0.47
1 3 -3 4.71 0.5
1 3 -3 5.98 0.53
1 3 -3 4.37 0.43
-1 3 3 4.55 0.46
-1 3 3 4.5 0.48
-1 3 3 4.89 0.46
1 3 -3 4.67 0.44
1 3 -3 4.36 0.5
1 3 -3 4.35 0.45
1 3 -3 4.27 0.48
1 3 -3 4.65 0.44
1 3 -3 4.45 0.48
1 3 -3 4.99 0.47
-1 3 3 4.51 0.46
1 3 -3 4.39 0.45
1 3 -3 5.14 0.47
1 3 -3 4.32 0.48
1 3 -3 5.17 0.47
1 3 -3 4.27 0.5
-1 3 3 4.62 0.44
0 -3 3 22.19 1.8
0 -3 3 22.17 1.94
0 -3 3 22.6 1.7
0 -3 -3 24.06 1.88
0 -3 -3 24.8 1.73
0 -3 -3 24.03 1.82
0 -3 3 22.02 1.9
0 -3 -3 20.73 1.91
0 -3 3 22.59 1.92
0 -3 -3 24.99 1.93
0 -3 -3 23.6 1.91
0 3 -3 25.86 1.65
0 3 -3 27.15 1.88
0 3 -3 25.74 1.51
0 3 -3 23.93 1.6
0 3 -3 25.49 1.85
0 3 3 24.05 1.49
0 3 3 22.85 1.84
0 3 -3 25.44 1.61
0 3 3 23.97 1.57
0 3 3 23.31 1.58
0 3 3 23.47 1.64
0 3 -3 24.63 1.79
0 3 -3 23.16 1.67
0 3 -3 24.33 1.48
0 3 -3 25.67 1.51
0 3 3 22.89 1.68
0 3 -3 23.04 1.86
0 3 -3 24.11 1.69
0 3 -3 26.25 1.56
0 3 -3 23.31 1.63
0 3 -3 25.37 1.57
0 3 3 23.96 1.58
0 3 3 20.5 1.72
0 3 -3 26.47 1.58
0 3 -3 26.08 1.62
0 3 3 25.15 1.66
0 3 3 22.93 1.85
0 3 -3 25.85 1.59
0 3 -3 23.02 1.65
0 3 -3 23.37 1.83
0 3 -3 25.48 1.6
0 3 3 22.42 1.86
0 3 -3 25.54 1.67
0 3 -3 24.97 1.47
0 3 -3 22.61 1.59
0 3 3 24.69 1.63
0 3 3 19.27 1.58
0 3 -3 22.69 1.63
0 3 -3 24.63 1.61
0 3 -3 25.39 1.72
0 3 -3 25.03 1.58
0 3 3 21.56 1.62
0 3 3 20.34 1.62
1 -3 3 150.61 11.58
-1 -3 -3 150.77 10.01
1 -3 3 153.63 10.69
-1 -3 -3 160.36 10.96
1 -3 3 140.66 12.99
-1 -3 -3 149.59 10.64
1 -3 3 154.73 11.39
-1 -3 -3 150.99 11.25
-1 -3 -3 159.68 11.08
1 3 3 160.75 9.61
1 3 3 147.92 10.04
1 3 3 142.33 9.84
-1 3 -3 158.92 9.44
-1 3 -3 167.32 10.83
-1 3 -3 154.81 8.8
-1 3 -3 152.48 9.2
1 3 3 143.52 9.57
-1 3 -3 144.84 10.93
-1 3 -3 154.09 8.8
-1 3 -3 172.77 9.29
1 3 3 150.3 9.23
1 3 3 153.54 10.73
-1 3 -3 163.74 9.4
-1 3 -3 156.59 9.68
-1 3 -3 152.48 9.58
-1 3 -3 159.19 9.35
-1 3 -3 162.58 9.68
1 3 3 148.95 9.34
-1 3 -3 157.58 10.49
1 3 3 136.76 10.4
1 3 3 160.92 8.75
1 3 3 137.7 9.65
1 3 3 146.82 10.98
-1 3 -3 151.42 9.17
1 3 3 144.32 9.67
1 3 3 161.98 11.13
-1 3 -3 136.79 9.54
1 3 3 166.56 10.99
1 3 3 157.27 9.65
-1 3 -3 154.63 8.59
-1 3 -3 136.55 11.07
-1 3 -3 141.85 10.94
-1 3 -3 165.58 9.74
-1 3 -3 161.12 8.75
1 3 3 162.04 9.71
-1 3 -3 144.52 9.82
-1 3 -3 159.83 9.3
-1 3 -3 142.65 10.01
1 3 3 162.78 9.31
-2 -3 -3 2.38 0.4
-2 -3 -3 2.2 0.43
2 -3 3 2.71 0.44
2 -3 3 2.53 0.43
2 -3 3 2.83 0.51
2 -3 3 2.46 0.47
2 -3 3 2.36 0.42
-2 -3 -3 2.76 0.42
-2 -3 -3 2.57 0.44
-2 -3 -3 2.28 0.42
-2 3 -3 2.96 0.38
2 3 3 3.17 0.38
-2 3 -3 3.26 0.48
2 3 3 2.8 0.4
2 3 3 2.66 0.32
2 3 3 2.52 0.36
-2 3 -3 2.16 0.29
-2 3 -3 2.6 0.31
2 3 3 2.99 0.38
2 3 3 1.92 0.37
2 3 3 1.97 0.36
2 3 3 2.75 0.32
2 3 3 2.43 0.33
-2 3 -3 3.12 0.52
2 3 3 2.49 0.37
-2 3 -3 3.09 0.42
-2 3 -3 2.86 0.31
2 3 3 2.89 0.37
2 3 3 2.54 0.34
-2 3 -3 3.42 0.38
-2 3 -3 3.37 0.36
2 3 3 3.9 0.37
-2 3 -3 2.9 0.32
2 3 3 2.76 0.32
2 3 3 2.97 0.39
-2 3 -3 2.81 0.39
-2 3 -3 3.06 0.33
-2 3 -3 3.88 0.4
2 3 3 2.47 0.29
-2 3 -3 4.09 0.57
-2 3 -3 3.22 0.41
3 -3 3 77.28 6.21
-3 -3 -3 72.37 5.85
3 -3 3 72.9 5.72
-3 -3 -3 81.23 5.87
-3 -3 -3 77.58 5.92
3 -3 3 76.04 6.97
3 -3 3 74.15 6.83
3 -3 3 75.61 6.1
3 3 3 89.51 5.96
3 3 3 84.51 5.15
3 3 3 88.49 5.89
-3 3 -3 83.1 4.95
3 3 3 86.63 5.32
-3 3 -3 82.15 5.66
-3 3 -3 84.29 4.98
3 3 3 75.06 5.4
3 3 3 79.41 4.94
3 3 3 79.86 5.11
-3 3 -3 86.07 5.25
-3 3 -3 76.7 4.99
3 3 3 79.86 5.16
-3 3 -3 84.05 5.18
3 3 3 86.53 5.13
3 3 3 83.5 5.23
-3 3 -3 79.84 5.11
3 3 3 87.04 5.4
-3 3 -3 81.12 5.04
-3 3 -3 82.25 5.87
3 3 3 80.22 5.85
3 3 3 72 5.32
-3 3 -3 78.69 4.67
4 3 3 8.67 0.77
-4 3 -3 8.41 0.88
-4 3 -3 8 0.75
-4 3 -3 8.07 0.68
-4 3 -3 8.6 0.69
-4 3 -3 9.98 0.87
4 3 3 7.68 0.77
4 3 3 7.05 0.75
4 3 3 8.13 0.77
4 3 3 8.05 0.74
-4 3 -3 8.55 0.71
4 3 3 7.96 0.72
-4 3 -3 8.48 0.77
4 3 3 9.08 0.7
4 3 3 8.35 0.71
4 3 3 8.73 0.74
-4 3 -3 8.43 0.71
4 3 3 7.68 0.73
5 3 3 0.56 0.2
-5 3 -3 0.32 0.24
5 3 3 0.33 0.21
-5 3 -3 0.23 0.17
5 3 3 0.38 0.25
-5 3 -3 0.08 0.2
5 3 3 0.17 0.22
5 3 3 0.22 0.15
5 3 3 0.27 0.16
-5 3 -3 0.01 0.14
-5 3 -3 0.5 0.28
-5 3 -3 0.26 0.2
-5 3 -3 0.4 0.22
5 3 3 0.34 0.17
-5 3 -3 0.66 0.29
5 3 3 0.38 0.19
5 3 3 0.12 0.2
-6 3 -3 3.78 0.36
6 3 3 4.46 0.41
6 3 3 3.2 0.42
6 3 3 4.68 0.43
6 3 3 4.13 0.38
6 3 3 4.23 0.41
-6 3 -3 4.78 0.53
-6 3 -3 5.38 0.53
6 3 3 4.4 0.46
-6 3 -3 4.47 0.42
-6 3 -3 4.57 0.45
-6 3 -3 4.37 0.41
6 3 3 4.56 0.47
6 3 3 4.1 0.39
7 -3 3 29.18 1.98
7 -3 3 30.85 2
-7 3 -3 31.97 2.15
-7 3 -3 31.14 1.99
7 3 3 29.45 2.03
7 3 3 29.05 1.92
-5 4 3 0.76 0.18
5 4 -3 0.86 0.18
5 4 -3 0.94 0.16
-5 4 3 0.98 0.2
5 4 -3 0.98 0.17
4 4 -3 0.9 0.23
-4 4 3 0.45 0.21
-4 4 3 0.85 0.18
4 4 -3 0.43 0.15
4 4 -3 0.36 0.15
4 4 -3 0.49 0.22
4 4 -3 0.55 0.15
4 4 -3 0.75 0.2
4 4 -3 0.36 0.22
-4 4 3 0.81 0.2
4 4 -3 0.55 0.16
-4 4 3 0.29 0.17
-4 4 3 0.17 0.21
-4 4 3 0.38 0.19
4 4 -3 0.52 0.15
3 4 -3 38.54 2.56
3 4 -3 37.35 2.86
-3 4 3 35.75 2.55
3 4 -3 34.41 2.83
-3 4 3 37.42 2.49
-3 4 3 36.19 2.42
-3 4 3 39.13 2.46
3 4 -3 36.77 2.64
3 4 -3 40.44 2.61
-3 4 3 38.48 2.55
3 4 -3 43.56 2.9
3 4 -3 37.34 2.49
3 4 -3 41.26 2.49
3 4 -3 36.61 2.52
3 4 -3 37.56 2.6
-3 4 3 34.98 2.5
3 4 -3 37.55 2.52
3 4 -3 41.88 2.52
-3 4 3 38.11 2.3
2 4 -3 2.4 0.33
2 4 -3 2.12 0.36
2 4 -3 2.02 0.35
-2 4 3 1.65 0.33
-2 4 3 1.55 0.32
2 4 -3 1.6 0.3
-2 4 3 1.48 0.29
2 4 -3 1.98 0.31
-2 4 3 2.38 0.33
2 4 -3 1.95 0.35
-2 4 3 1.62 0.29
2 4 -3 1.78 0.3
-2 4 3 2.37 0.39
-2 4 3 1.64 0.27
2 4 -3 1.83 0.3
2 4 -3 1.81 0.33
2 4 -3 2.27 0.33
2 4 -3 2.27 0.32
-2 4 3 2.41 0.37
2 4 -3 2.27 0.3
2 4 -3 2.04 0.33
2 4 -3 1.85 0.3
1 4 -3 39.61 2.19
-1 4 3 33.97 2.25
1 4 -3 35.37 2.06
1 4 -3 30.65 2.57
-1 4 3 30.86 2.19
1 4 -3 31.51 2.33
-1 4 3 30.42 2.55
1 4 -3 36.67 2.57
-1 4 3 29.27 2.53
1 4 -3 35.71 2.44
1 4 -3 38.38 2.27
-1 4 3 29.29 2.24
1 4 -3 35.51 2.19
-1 4 3 33.33 2.18
-1 4 3 31.2 2.23
-1 4 3 32.04 2.19
1 4 -3 33.63 2.54
-1 4 3 35.97 2.07
1 4 -3 33.19 2.25
1 4 -3 32.9 2.25
-1 4 3 35.84 2.29
1 4 -3 34.64 2.23
1 4 -3 31.42 2.28
1 4 -3 31.86 2.16
1 4 -3 37.73 2.27
0 4 3 2.12 0.33
0 4 -3 2.32 0.38
0 4 -3 2.41 0.34
0 4 -3 2.51 0.32
0 4 -3 2.11 0.35
0 4 -3 1.9 0.3
0 4 -3 2.72 0.37
0 4 -3 2.09 0.37
0 4 3 1.84 0.32
0 4 3 1.52 0.29
0 4 -3 2.69 0.39
0 4 3 1.97 0.33
0 4 -3 2.01 0.32
0 4 -3 1.9 0.3
0 4 -3 2.53 0.36
0 4 -3 1.95 0.32
0 4 3 1.75 0.29
0 4 3 2.32 0.33
0 4 -3 1.82 0.33
0 4 -3 2.31 0.33
0 4 -3 1.65 0.35
0 4 3 1.59 0.32
1 4 3 9.7 0.92
1 4 3 10.04 0.81
-1 4 -3 10.22 0.79
-1 4 -3 11.01 0.84
1 4 3 10.26 0.76
-1 4 -3 9.72 0.92
-1 4 -3 9.79 0.91
-1 4 -3 10.29 0.79
1 4 3 9.52 0.92
1 4 3 10.38 0.81
1 4 3 8.1 0.8
-1 4 -3 11.8 0.99
-1 4 -3 10.85 0.84
1 4 3 10.04 0.93
1 4 3 11.75 0.88
-1 4 -3 10.34 0.85
-1 4 -3 9.8 0.78
1 4 3 10.99 0.83
-1 4 -3 12.44 0.95
1 4 3 11.24 0.75
-1 4 -3 11.47 0.82
1 4 3 10.1 0.81
-1 4 -3 12.69 0.86
-1 4 -3 10.11 0.74
-1 4 -3 11.51 0.82
1 4 3 11.23 0.81
-2 4 -3 9.54 0.81
2 4 3 8.4 0.67
2 4 3 8.03 0.76
2 4 3 9.94 0.8
2 4 3 6.25 0.64
2 4 3 7.8 0.7
2 4 3 8.26 0.67
-2 4 -3 8.74 0.7
-2 4 -3 9.33 0.84
-2 4 -3 8.64 0.67
2 4 3 6.88 0.67
2 4 3 8.56 0.61
2 4 3 7.28 0.66
-2 4 -3 7.57 0.63
-2 4 -3 7.34 0.64
-2 4 -3 8.32 0.72
-2 4 -3 9.92 0.63
-2 4 -3 7.73 0.68
2 4 3 8.08 0.64
-2 4 -3 8.39 0.65
2 4 3 8.51 0.77
-2 4 -3 7.98 0.69
2 4 3 9.78 0.74
3 4 3 16.04 1.15
3 4 3 12.9 1.04
-3 4 -3 14.83 1.15
-3 4 -3 14.56 0.89
-3 4 -3 12.52 1.16
-3 4 -3 14.96 1.06
-3 4 -3 14.04 0.97
3 4 3 14.77 0.99
-3 4 -3 12.36 0.98
3 4 3 15.26 1.15
-3 4 -3 13.48 0.99
3 4 3 13.21 1.01
3 4 3 13.59 0.98
3 4 3 13.43 1
-3 4 -3 12.6 0.98
3 4 3 12.73 1.04
3 4 3 13.81 1.12
3 4 3 10.75 0.97
-4 4 -3 0.59 0.25
-4 4 -3 0.5 0.17
-4 4 -3 0.76 0.2
4 4 3 0.27 0.2
-4 4 -3 0.69 0.22
4 4 3 0.82 0.2
4 4 3 0.68 0.17
-4 4 -3 0.55 0.17
-4 4 -3 0.17 0.19
4 4 3 0.74 0.2
4 4 3 0.16 0.19
4 4 3 0.21 0.16
4 4 3 0.61 0.18
4 4 3 0.75 0.18
-9 0 4 0.54 0.16
-9 0 4 0.14 0.12
9 0 -4 0.14 0.1
9 0 -4 0.09 0.11
9 0 -4 0.07 0.09
-8 0 4 10.74 0.81
8 0 -4 11.8 0.87
8 0 -4 12.28 0.88
8 0 -4 10.13 0.79
8 0 -4 11.99 0.9
8 0 -4 12 0.88
-8 0 4 10.99 0.82
7 0 -4 0.33 0.17
7 0 -4 0.15 0.16
7 0 -4 0.17 0.12
7 0 -4 0.13 0.14
7 0 -4 0.13 0.14
7 0 -4 0.18 0.15
7 0 -4 0.21 0.16
-6 0 4 53.53 4.52
-6 0 4 57.22 4.4
-6 0 4 61.47 4.38
6 0 -4 64 4.07
6 0 -4 59.6 5.07
6 0 -4 61.94 4.01
6 0 -4 55.62 3.92
6 0 -4 59.04 3.73
6 0 -4 63.06 3.94
-6 0 4 59.65 4.55
6 0 -4 50.81 5.07
-6 0 4 61.99 4.66
6 0 -4 59.42 4.88
6 0 -4 65.53 3.94
6 0 -4 65.29 3.71
5 0 -4 0.2 0.14
-5 0 4 0.03 0.08
5 0 -4 -0.04 0.09
5 0 -4 0.04 0.11
5 0 -4 0.04 0.1
5 0 -4 0.12 0.11
-5 0 4 -0.04 0.08
5 0 -4 0.04 0.1
-5 0 4 0.04 0.11
5 0 -4 0.04 0.07
5 0 -4 0.03 0.1
5 0 -4 0 0.1
5 0 -4 0.1 0.1
-5 0 4 0.08 0.09
5 0 -4 0.07 0.12
5 0 -4 0.09 0.11
-5 0 4 0.07 0.11
-5 0 4 0.01 0.1
-5 0 4 0.03 0.1
4 0 -4 101.55 9.68
-4 0 4 129.43 8.68
-4 0 4 121.19 8.15
-4 0 4 121.75 8.51
-4 0 4 118.28 8.12
-4 0 4 115.8 8.48
4 0 -4 127.52 9.44
-4 0 4 114.73 8.51
-4 0 4 118.31 8.23
4 0 -4 122.73 9.11
4 0 -4 103.83 9.53
4 0 -4 98.67 7.32
4 0 -4 97.92 6.89
-3 0 4 -0.06 0.05
3 0 -4 -0.05 0.05
3 0 -4 -0.05 0.06
3 0 -4 -0.06 0.02
-3 0 4 -0.03 0.06
3 0 -4 0.01 0.07
-3 0 4 0.04 0.07
-3 0 4 0.03 0.08
-3 0 4 0.06 0.07
-3 0 4 -0.05 0.04
3 0 -4 0 0.06
3 0 -4 -0.05 0.03
-3 0 4 -0.01 0.05
2 0 -4 304.54 26.17
-2 0 4 361.26 25.15
-2 0 4 377.89 26.22
-2 0 4 359.17 25.13
-2 0 4 356.42 25.42
2 0 -4 359.67 29.48
-2 0 4 365.03 26.32
2 0 -4 379.68 28.09
-2 0 4 356.29 26.7
-2 0 4 372.74 26.2
2 0 -4 345.29 29.99
2 0 -4 392.12 29.09
2 0 -4 321.16 26.65
-1 0 4 -0.2 0.06
1 0 -4 -0.15 0.07
-1 0 4 -0.26 0.04
-1 0 4 -0.2 0.06
-1 0 4 -0.18 0.06
0 0 4 27.69 2.19
0 0 -4 27.74 2.11
0 0 4 29.61 2.06
0 0 4 30.72 2.09
0 0 4 27.08 2.08
0 0 4 31.21 2.06
0 0 4 28.17 2.07
0 0 4 29.01 2.15
0 0 4 29.65 1.88
0 0 -4 23.08 1.81
0 0 -4 27.57 2.07
0 0 -4 24.24 1.97
0 0 -4 24.29 2.05
0 0 -4 29.16 2.37
0 0 -4 23.95 1.96
0 0 4 28.12 2.07
0 0 -4 26.39 1.94
0 0 4 29.66 2.08
1 0 4 -0.2 0.05
-1 0 -4 -0.26 0.04
-1 0 -4 -0.18 0.07
-1 0 -4 -0.19 0.07
-1 0 -4 -0.32 0.05
-1 0 -4 -0.25 0.05
1 0 4 -0.01 0.07
1 0 4 -0.28 0.04
1 0 4 -0.26 0.03
1 0 4 -0.12 0.05
-1 0 -4 -0.27 0.04
1 0 4 -0.15 0.05
-1 0 -4 -0.1 0.06
2 0 4 175.99 11.49
2 0 4 175.15 11.43
-2 0 -4 153.04 10.07
-2 0 -4 151.72 11
2 0 4 136.53 12.84
-2 0 -4 139.11 11.63
2 0 4 144.84 12.24
2 0 4 164.95 11.89
2 0 4 145.64 12.68
-2 0 -4 156.47 11.11
2 0 4 176.65 12.13
-2 0 -4 145.99 10.96
-2 0 -4 154.48 10.71
-2 0 -4 154.63 11.32
-3 0 -4 -0.04 0.05
-3 0 -4 0.06 0.09
-3 0 -4 0.01 0.07
3 0 4 0.03 0.07
-3 0 -4 0.1 0.09
3 0 4 0.09 0.07
3 0 4 0.24 0.11
3 0 4 -0.02 0.06
-3 0 -4 -0.03 0.07
3 0 4 0.26 0.08
-3 0 -4 0.08 0.1
3 0 4 -0.03 0.05
3 0 4 0.14 0.1
-3 0 -4 0.06 0.08
-4 0 -4 248.41 15.82
-4 0 -4 231.05 18.3
-4 0 -4 248.88 17.78
4 0 4 248.93 19.95
-4 0 -4 244.79 17.25
-4 0 -4 253.29 17.3
4 0 4 257.45 17.96
4 0 4 220.87 19.24
4 0 4 233.68 19.05
-4 0 -4 251.39 17.48
4 0 4 251.63 18.71
5 0 4 0.38 0.16
-5 0 -4 0.17 0.14
5 0 4 0.15 0.1
-5 0 -4 0.28 0.13
5 0 4 0.22 0.16
-5 0 -4 0.25 0.15
5 0 4 0 0.08
-5 0 -4 0.46 0.18
5 0 4 0.3 0.13
-5 0 -4 0.34 0.16
5 0 4 0.41 0.17
5 0 4 0.19 0.11
5 0 4 0.26 0.15
-5 0 -4 -0.01 0.09
5 0 4 0.12 0.12
6 0 4 0.55 0.2
-6 0 -4 0.63 0.2
-6 0 -4 0.95 0.26
-6 0 -4 0.83 0.23
6 0 4 1.48 0.35
6 0 4 1.35 0.27
6 0 4 0.69 0.18
-6 0 -4 0.75 0.24
6 0 4 0.96 0.2
6 0 4 1.24 0.3
6 0 4 0.49 0.2
6 0 4 1.68 0.33
6 0 4 0.6 0.18
6 0 4 1.4 0.24
7 0 4 0.11 0.16
7 0 4 0.15 0.13
7 0 4 0.16 0.12
7 0 4 0.12 0.13
7 0 4 0.17 0.16
-7 0 -4 -0.08 0.13
-7 0 -4 0.11 0.15
7 0 4 -0.05 0.09
-7 0 -4 0.21 0.19
7 0 4 0.22 0.13
-8 0 -4 70.87 4.28
-8 0 -4 68.74 4.34
8 0 4 67.02 4.57
8 0 4 73.79 4.72
8 0 4 67.5 4.4
8 0 4 72.13 4.63
-8 0 -4 71.64 4.42
-8 0 -4 66.12 4.87
8 0 4 74.36 4.76
-8 0 -4 74.73 5.05
8 -1 -4 60.38 3.65
8 -1 -4 51.79 3.66
8 -1 -4 64.21 3.89
8 -1 -4 61.84 4.01
8 -1 -4 60.76 3.89
8 1 -4 57.67 3.98
-8 1 4 62.3 3.73
-8 1 4 53.5 3.64
8 1 -4 55.34 3.9
8 1 -4 53.06 3.64
8 1 -4 62.44 4.04
8 1 -4 61.81 3.91
-8 1 4 59.64 4.27
-8 1 4 63.56 3.87
-8 1 4 64.01 4.17
8 1 -4 62 3.91
7 -1 -4 0.48 0.19
7 -1 -4 0.42 0.16
7 -1 -4 0.26 0.15
7 -1 -4 0.02 0.09
7 -1 -4 0.52 0.18
7 -1 -4 0.48 0.2
7 -1 -4 0.33 0.15
-7 1 4 0.42 0.2
-7 1 4 0.29 0.2
-7 1 4 1.03 0.31
7 1 -4 0.34 0.17
7 1 -4 0.48 0.18
7 1 -4 0.39 0.16
7 1 -4 0.73 0.21
7 1 -4 0.5 0.21
7 1 -4 0 0.12
-7 1 4 0.55 0.23
-7 1 4 0 0.12
7 1 -4 0.28 0.17
-7 1 4 0.81 0.26
-7 1 4 0.62 0.21
6 -1 -4 128.66 7.53
-6 -1 4 118.34 8.36
6 -1 -4 124.36 7.77
6 -1 -4 107.03 7.28
-6 -1 4 104.04 8.42
-6 -1 4 115.47 8.73
6 -1 -4 99.85 9.93
6 -1 -4 117.99 7.69
6 -1 -4 117.3 9.82
-6 -1 4 118.02 8.9
6 -1 -4 125.21 7.09
6 -1 -4 116.68 9.36
-6 -1 4 114.65 8.71
6 -1 -4 108.99 9.67
-6 -1 4 105.96 8.74
6 -1 -4 119.41 7.17
6 1 -4 122.74 7.74
-6 1 4 126.48 7.13
6 1 -4 119.93 7.8
-6 1 4 115.88 7.22
6 1 -4 116.87 7.25
-6 1 4 108.83 7.4
6 1 -4 123.64 7.59
-6 1 4 112.2 8.48
-6 1 4 102.86 8.72
-6 1 4 128.75 8.31
6 1 -4 115.53 7.12
6 1 -4 125.28 7.57
6 1 -4 125.18 7.61
6 1 -4 110.2 7.18
-6 1 4 122.82 8.95
-6 1 4 122.3 8.43
-5 -1 4 16.04 1.29
5 -1 -4 15.37 1.41
-5 -1 4 15.44 1.23
-5 -1 4 15.77 1.29
-5 -1 4 16.77 1.32
5 -1 -4 18.54 1.47
5 -1 -4 14.87 1.44
-5 -1 4 15.72 1.28
-5 -1 4 14.96 1.21
5 -1 -4 15.47 1.37
5 1 -4 14.57 1.12
-5 1 4 16.46 1.29
-5 1 4 14.94 1.08
-5 1 4 15.34 1.35
-5 1 4 16.86 1.27
5 1 -4 14.35 1.08
5 1 -4 14.45 1.07
5 1 -4 15.29 1.15
5 1 -4 12.92 1.06
5 1 -4 15.27 1.14
5 1 -4 12.97 1.04
5 1 -4 15.11 1.1
5 1 -4 14.29 1.04
-5 1 4 15.46 1.31
5 1 -4 15.56 1.13
4 -1 -4 2.76 0.34
-4 -1 4 2.23 0.29
-4 -1 4 2.99 0.34
-4 -1 4 2.68 0.32
4 -1 -4 2.94 0.35
4 -1 -4 2.74 0.36
-4 -1 4 2.88 0.31
-4 -1 4 2.38 0.31
-4 -1 4 2.85 0.27
4 -1 -4 2.75 0.31
4 -1 -4 2.65 0.35
4 1 -4 2.55 0.25
4 1 -4 2.05 0.28
4 1 -4 2.4 0.34
4 1 -4 1.94 0.31
-4 1 4 2.53 0.31
4 1 -4 3.16 0.29
4 1 -4 2.35 0.3
4 1 -4 2.49 0.3
4 1 -4 2.76 0.36
-4 1 4 2.61 0.33
-4 1 4 2.36 0.34
-4 1 4 3.23 0.38
4 1 -4 2.09 0.32
-4 1 4 1.94 0.3
4 1 -4 2.63 0.26
-3 -1 4 8.42 0.65
-3 -1 4 8.09 0.69
3 -1 -4 9.6 0.78
3 -1 -4 7.22 0.65
3 -1 -4 7.74 0.68
3 -1 -4 8.66 0.78
-3 -1 4 9.08 0.69
3 -1 -4 8.94 0.75
-3 -1 4 8.24 0.68
-3 -1 4 8.01 0.65
3 -1 -4 6.6 0.6
-3 -1 4 6.75 0.54
-3 -1 4 7.61 0.62
3 -1 -4 8.4 0.72
-3 1 4 6.87 0.68
-3 1 4 7.91 0.73
-3 1 4 7.63 0.71
-3 1 4 8.88 0.69
-3 1 4 8.58 0.68
-2 -1 4 293.84 20.34
-2 -1 4 322.83 21.22
2 -1 -4 292.95 21.22
2 -1 -4 297.07 23.53
2 -1 -4 305.18 22.74
2 -1 -4 304.58 23.88
-2 -1 4 288.49 20.58
-2 -1 4 248.09 20.95
-2 -1 4 300.52 21.61
2 -1 -4 290.59 24.3
-2 -1 4 260.47 18.63
2 -1 -4 270.85 19.88
-2 -1 4 305.96 21.2
2 -1 -4 305.98 21.6
-2 -1 4 270.57 20.35
-2 1 4 271.65 21.31
-2 1 4 270.8 21.21
-2 1 4 282.71 20.36
-2 1 4 319.22 21.65
-2 1 4 289.27 21.24
-1 -1 4 19.09 1.58
1 -1 -4 22.14 1.76
1 -1 -4 20.18 1.57
-1 -1 4 19.97 1.49
-1 -1 4 20.44 1.51
1 -1 -4 20.17 1.66
1 -1 -4 20.16 1.55
1 -1 -4 21 1.6
1 -1 -4 21.77 1.71
1 -1 -4 21.37 1.8
1 -1 -4 19.99 1.47
-1 -1 4 21.06 1.57
-1 1 4 17.8 1.56
-1 1 4 20.86 1.59
-1 1 4 22.14 1.62
-1 1 4 18.59 1.57
-1 1 4 20.49 1.58
0 -1 -4 1000 61.14
0 1 4 900.83 69.37
-1 -1 -4 33.69 2.23
-1 -1 -4 34.16 2.37
1 -1 4 37.1 2.82
1 -1 4 34.84 2.52
-1 -1 -4 33.96 2.51
1 -1 4 34.71 2.63
-1 -1 -4 33.8 2.56
-1 -1 -4 34.4 2.44
1 -1 4 35.38 2.73
1 -1 4 33.17 2.51
1 -1 4 34.21 2.66
-1 -1 -4 34.65 2.52
-1 -1 -4 32.95 2.86
1 -1 4 34.64 2.86
1 1 4 30.83 2.51
1 1 4 37.7 2.56
1 1 4 32.67 2.68
-1 1 -4 30.93 2.45
1 1 4 37.14 2.56
1 1 4 28.26 2.6
-1 1 -4 31.88 2.41
2 -1 4 6.38 0.51
-2 -1 -4 5.5 0.46
-2 -1 -4 5.74 0.5
-2 -1 -4 5.64 0.45
2 -1 4 5.25 0.57
-2 -1 -4 5.24 0.49
2 -1 4 5.97 0.52
-2 -1 -4 5.73 0.5
2 -1 4 6.01 0.59
2 -1 4 5.79 0.55
2 -1 4 5.44 0.56
-2 -1 -4 6.03 0.48
-2 -1 -4 6.47 0.51
2 -1 4 6.24 0.5
-2 1 -4 5.37 0.51
-2 1 -4 4.97 0.48
-2 1 -4 5.05 0.48
2 1 4 5.84 0.51
2 1 4 6.9 0.55
-2 1 -4 5.85 0.51
2 1 4 5.28 0.5
2 1 4 5.81 0.52
-3 -1 -4 16.96 1.29
3 -1 4 17.73 1.53
-3 -1 -4 17.26 1.36
-3 -1 -4 17.03 1.3
3 -1 4 16.96 1.38
3 -1 4 17.27 1.36
-3 -1 -4 17.12 1.32
3 -1 4 17.85 1.48
-3 -1 -4 17.31 1.31
-3 -1 -4 17.61 1.19
-3 -1 -4 15.21 1.21
3 -1 4 17.93 1.32
3 -1 4 17.12 1.51
3 -1 4 16.02 1.37
3 -1 4 18.46 1.44
-3 1 -4 16.57 1.32
3 1 4 16.07 1.37
-3 1 -4 14.89 1.32
-3 1 -4 15.12 1.29
3 1 4 14.06 1.44
3 1 4 18.95 1.43
3 1 4 17.84 1.34
-4 -1 -4 105.25 7.52
4 -1 4 108.21 7.35
-4 -1 -4 96.8 7.37
-4 -1 -4 109.56 7.19
-4 -1 -4 106.97 6.49
4 -1 4 112.12 8.31
-4 -1 -4 111.81 7.12
4 -1 4 107.56 8.19
-4 -1 -4 100.75 7.27
-4 -1 -4 103.99 7.09
4 -1 4 106.98 7.91
4 -1 4 110.05 7.68
4 -1 4 98.14 7.48
4 -1 4 101.38 8.43
4 1 4 96.09 6.21
-4 1 -4 92.9 5.98
4 1 4 86.49 6.6
4 1 4 91.56 8.15
-4 1 -4 96.17 5.96
4 1 4 100.82 7.67
4 1 4 89.83 6.55
4 1 4 92.23 6.5
-4 1 -4 102.33 7.11
-4 1 -4 107.97 7.23
-4 1 -4 91.28 6.78
4 1 4 91.82 6.38
4 1 4 89 6.44
-4 1 -4 89.54 6.28
-4 1 -4 88.14 6.98
-4 1 -4 89.38 6.12
4 1 4 91.41 6.28
4 1 4 92.18 6.15
4 1 4 101.92 7.37
-4 1 -4 114 7.16
-4 1 -4 98.22 6.08
-5 -1 -4 2.28 0.37
-5 -1 -4 1.48 0.3
5 -1 4 1.97 0.37
5 -1 4 2.38 0.38
-5 -1 -4 2.91 0.41
-5 -1 -4 1.93 0.32
5 -1 4 2.59 0.44
-5 -1 -4 3.13 0.45
5 -1 4 2.04 0.36
-5 -1 -4 2.04 0.27
5 -1 4 2.09 0.33
5 1 4 1.97 0.34
5 1 4 2.03 0.3
-5 1 -4 2.67 0.34
5 1 4 2.68 0.36
-5 1 -4 2.63 0.39
-5 1 -4 2.91 0.44
5 1 4 2.9 0.46
-5 1 -4 2.87 0.43
-5 1 -4 2.53 0.35
5 1 4 2.55 0.38
-5 1 -4 2.38 0.33
-5 1 -4 2.15 0.38
5 1 4 2.1 0.33
-5 1 -4 2.71 0.35
5 1 4 2.59 0.4
5 1 4 1.93 0.35
5 1 4 2.14 0.26
-5 1 -4 2.51 0.39
-5 1 -4 2.27 0.41
-5 1 -4 2.33 0.36
5 1 4 2 0.26
-6 -1 -4 177.3 13.37
6 -1 4 175.67 14.49
6 -1 4 171.97 14.93
-6 -1 -4 168.35 14.18
-6 -1 -4 173.86 13.38
-6 -1 -4 181.54 13.53
6 -1 4 186.57 15.48
-6 1 -4 205.99 13.25
-6 1 -4 187.14 11.9
6 1 4 187.92 12.07
-6 1 -4 193.83 11.46
-6 1 -4 185.19 13.58
-6 1 -4 198.6 12.86
-6 1 -4 208.16 11.6
6 1 4 203.33 11.64
6 1 4 189.6 12.05
6 1 4 195.61 12.38
6 1 4 194.48 11.89
-6 1 -4 167.42 13.38
-6 1 -4 202.98 11.27
6 1 4 194.29 12.48
-6 1 -4 182.63 13.42
6 1 4 198.13 12.19
7 -1 4 5.8 0.49
7 -1 4 4.6 0.49
7 -1 4 4.43 0.42
7 -1 4 5.54 0.5
7 -1 4 4.54 0.44
7 -1 4 5.36 0.47
-7 1 -4 5.07 0.46
7 1 4 4.55 0.48
7 1 4 4.93 0.5
7 1 4 4.96 0.51
-7 1 -4 5.83 0.52
-7 1 -4 5.2 0.49
-7 1 -4 5.44 0.47
-7 1 -4 5.38 0.55
7 1 4 5.35 0.47
-7 1 -4 5.37 0.57
7 1 4 5.22 0.53
7 1 4 4.97 0.47
-8 -1 -4 1.59 0.27
8 -1 4 1.62 0.26
8 -1 4 1.31 0.25
8 -1 4 1.34 0.21
-8 -1 -4 0.92 0.21
8 -1 4 1.49 0.27
8 -1 4 1.14 0.2
8 1 4 1.78 0.27
-8 1 -4 1.18 0.21
8 1 4 1.43 0.23
-8 1 -4 1.4 0.29
-8 1 -4 1.43 0.24
8 1 4 1.26 0.22
8 1 4 1.28 0.22
8 1 4 1.39 0.26
-8 1 -4 1.09 0.25
-8 1 -4 0.87 0.2
8 1 4 2.07 0.32
8 -2 -4 9.54 0.67
8 -2 -4 8.29 0.63
8 -2 -4 9.7 0.63
8 -2 -4 10.31 0.69
8 2 -4 8.67 0.67
8 2 -4 9.4 0.7
8 2 -4 9.02 0.69
-8 2 4 10.12 0.7
8 2 -4 8.22 0.67
8 2 -4 9.5 0.72
-8 2 4 8.57 0.73
-8 2 4 9.92 0.67
7 -2 -4 0.18 0.13
7 -2 -4 0.36 0.13
7 -2 -4 0.5 0.16
7 -2 -4 0.09 0.11
7 -2 -4 0.22 0.14
7 -2 -4 0.34 0.14
-7 2 4 0.44 0.2
7 2 -4 0.14 0.13
-7 2 4 0.29 0.18
-7 2 4 0.06 0.14
-7 2 4 0.58 0.19
7 2 -4 0.12 0.15
7 2 -4 0.14 0.18
7 2 -4 0.47 0.21
7 2 -4 0.24 0.21
-7 2 4 0.27 0.21
-7 2 4 0.52 0.2
7 2 -4 0.33 0.16
7 2 -4 0.35 0.17
6 2 -4 95.59 5.97
6 2 -4 86.99 5.67
6 2 -4 89.51 5.97
-6 2 4 98.54 6.36
6 2 -4 88.3 5.95
6 2 -4 91.62 6.13
-6 2 4 88.73 6.49
6 2 -4 77.66 5.85
6 2 -4 83.4 5.58
-6 2 4 96.29 5.7
-6 2 4 104.2 5.92
6 2 -4 83.29 5.77
6 2 -4 88.84 6.05
-6 2 4 94.02 5.82
-6 2 4 95.13 5.6
5 -2 -4 4.21 0.55
-5 -2 4 5.45 0.57
5 -2 -4 4.24 0.6
-5 -2 4 5.57 0.6
5 -2 -4 3.64 0.49
-5 -2 4 4.17 0.54
-5 -2 4 4.62 0.53
5 -2 -4 4.48 0.53
5 -2 -4 5.04 0.61
-5 -2 4 4.77 0.56
5 2 -4 5.29 0.5
-5 2 4 4.01 0.64
-5 2 4 5.2 0.61
5 2 -4 5.28 0.55
5 2 -4 4.51 0.49
-5 2 4 5.61 0.56
5 2 -4 4.56 0.44
-5 2 4 5.32 0.51
5 2 -4 4.95 0.45
-5 2 4 5.42 0.59
-5 2 4 4.16 0.61
-5 2 4 5.13 0.44
5 2 -4 4.15 0.47
5 2 -4 4.59 0.55
5 2 -4 4.56 0.55
5 2 -4 4.9 0.42
-5 2 4 5.35 0.58
5 2 -4 5.03 0.45
5 2 -4 5.14 0.52
5 2 -4 4.23 0.51
-5 2 4 5.26 0.51
4 -2 -4 139.32 10.78
4 -2 -4 158.58 11.74
4 -2 -4 154.88 12.35
-4 -2 4 159.34 11.06
4 -2 -4 146.69 11.39
4 -2 -4 163.03 12.99
4 -2 -4 164.81 13.23
-4 -2 4 164.37 11.55
-4 -2 4 166.57 11.76
-4 -2 4 153.35 11.17
4 -2 -4 147.79 11.52
-4 -2 4 174.52 11.57
4 2 -4 150.35 8.91
4 2 -4 159.89 10.18
-4 2 4 154.3 9.44
-4 2 4 158.01 9.44
4 2 -4 149.74 9.2
-4 2 4 149.9 10.96
-4 2 4 158.26 8.9
4 2 -4 152.21 11.11
4 2 -4 173.06 10.36
4 2 -4 166.58 9.63
4 2 -4 155.15 10.06
4 2 -4 157.61 10
4 2 -4 163.26 10.09
-4 2 4 152.37 10.68
4 2 -4 146.68 9.44
-4 2 4 153.05 9.84
4 2 -4 160.59 9.71
4 2 -4 139.95 9.52
-4 2 4 148.05 11.85
4 2 -4 167.07 10.26
4 2 -4 167.79 10.04
4 2 -4 148.82 8.73
4 2 -4 150.18 11.24
4 2 -4 143.57 9.71
4 2 -4 146.81 11.08
-4 2 4 150.86 9.91
4 2 -4 149.09 9.7
4 2 -4 164.14 9.85
-4 2 4 153.2 9.57
3 -2 -4 10.15 0.95
3 -2 -4 9.4 0.84
-3 -2 4 9.93 0.78
3 -2 -4 9.68 0.82
-3 -2 4 9.87 0.83
3 -2 -4 9.26 0.84
3 -2 -4 8.68 0.75
-3 -2 4 10.86 0.84
-3 -2 4 9.21 0.75
3 -2 -4 9.37 0.91
-3 -2 4 10.03 0.84
3 -2 -4 9.22 0.81
-3 -2 4 9.85 0.78
-3 2 4 10.33 0.69
-3 2 4 8.62 0.72
3 2 -4 9.38 0.71
3 2 -4 8.87 0.63
3 2 -4 8.64 0.63
3 2 -4 9.43 0.66
3 2 -4 9.36 0.67
-3 2 4 7.86 0.73
3 2 -4 9.93 0.7
3 2 -4 8.76 0.71
3 2 -4 9.06 0.7
3 2 -4 9.86 0.69
-3 2 4 8.29 0.88
-3 2 4 7.62 0.83
3 2 -4 9.53 0.75
3 2 -4 9.83 0.77
3 2 -4 9.23 0.64
3 2 -4 9.68 0.63
-3 2 4 7.5 0.78
3 2 -4 8.8 0.64
-3 2 4 8.51 0.64
-3 2 4 8.07 0.69
3 2 -4 8.95 0.71
3 2 -4 9.14 0.78
3 2 -4 9.77 0.77
3 2 -4 9.37 0.77
3 2 -4 9.02 0.71
3 2 -4 9.12 0.69
-3 2 4 8.67 0.72
3 2 -4 9.58 0.7
-3 2 4 7.99 0.79
3 2 -4 8.87 0.67
3 2 -4 9.37 0.77
-3 2 4 8.66 0.69
3 2 -4 9.23 0.65
3 2 -4 9.48 0.67
3 2 -4 9.39 0.75
3 2 -4 9.98 0.65
3 2 -4 9.51 0.63
3 2 -4 8.61 0.7
3 2 -4 9.53 0.73
-2 -2 4 64.87 4.19
-2 -2 4 58.69 4.17
2 -2 -4 60.65 4.64
-2 -2 4 57.85 3.81
2 -2 -4 63.62 4.38
-2 -2 4 62.07 4.45
2 -2 -4 61.42 4.11
2 -2 -4 64.03 4.35
2 -2 -4 65.93 4.91
2 -2 -4 61.01 4.45
2 -2 -4 65.43 5.01
-2 -2 4 53.57 4.27
-2 -2 4 61.17 4.22
2 2 -4 55.93 3.39
2 2 -4 62.14 3.83
2 2 -4 57.92 3.4
2 2 -4 57.86 3.39
-2 2 4 49.76 4.33
2 2 -4 60.73 3.53
2 2 -4 60.18 3.89
2 2 -4 57.85 3.72
2 2 -4 60.8 3.65
2 2 -4 59.72 3.57
2 2 -4 54.93 3.51
2 2 -4 56.28 3.57
2 2 -4 58.26 3.51
2 2 -4 54.8 3.8
2 2 -4 62.97 4.17
2 2 -4 59.41 3.61
2 2 -4 61.55 3.55
-2 2 4 53.3 3.73
2 2 -4 59.34 3.56
-2 2 4 53.17 3.37
-2 2 4 51.13 3.61
-2 2 4 55.65 3.73
2 2 -4 55.16 3.68
2 2 -4 57.82 4.02
2 2 -4 59 3.73
2 2 -4 60.52 3.93
-2 2 4 55.5 4.38
2 2 -4 59.61 3.86
2 2 -4 55.86 3.32
2 2 -4 60.81 3.63
-2 2 4 50.96 3.73
2 2 -4 55.48 4.2
2 2 -4 55.5 4.26
2 2 -4 59.93 3.68
2 2 -4 58.89 3.38
2 2 -4 57.75 3.31
2 2 -4 60.46 3.4
2 2 -4 57.35 3.73
2 2 -4 59.16 3.4
2 2 -4 58.7 3.36
2 2 -4 60.9 3.6
-2 2 4 53.24 3.68
2 2 -4 58.43 3.8
2 2 -4 55.04 4.21
2 2 -4 57.59 3.71
2 2 -4 57.56 3.79
2 2 -4 56.49 3.61
-2 2 4 53.03 3.57
2 2 -4 56.34 3.69
-2 2 4 51.85 3.58
1 -2 -4 3.93 0.37
1 -2 -4 3.58 0.36
-1 -2 4 2.9 0.34
1 -2 -4 3.11 0.35
1 -2 -4 3.38 0.34
1 -2 -4 3.87 0.36
-1 -2 4 3.16 0.33
1 2 -4 3.11 0.29
1 2 -4 4.04 0.34
1 2 -4 3.97 0.32
1 2 -4 2.97 0.31
-1 2 4 2.82 0.32
1 2 -4 2.45 0.28
1 2 -4 2.86 0.33
1 2 -4 3 0.29
1 2 -4 2.73 0.33
1 2 -4 3.05 0.3
1 2 -4 3.05 0.29
1 2 -4 3.1 0.3
1 2 -4 3.03 0.31
1 2 -4 3.09 0.31
1 2 -4 3.33 0.3
1 2 -4 3.31 0.34
1 2 -4 4.12 0.39
1 2 -4 3 0.3
1 2 -4 3.2 0.29
1 2 -4 3.25 0.34
1 2 -4 3.24 0.32
1 2 -4 2.9 0.32
1 2 -4 3.15 0.33
1 2 -4 3.4 0.32
1 2 -4 3.36 0.28
1 2 -4 3.3 0.33
1 2 -4 2.66 0.28
1 2 -4 3.05 0.3
1 2 -4 2.74 0.33
1 2 -4 2.91 0.32
1 2 -4 3.37 0.32
1 2 -4 4.07 0.32
1 2 -4 2.89 0.29
1 2 -4 3.22 0.3
1 2 -4 2.83 0.29
-1 2 4 2.94 0.28
-1 2 4 3.13 0.32
1 2 -4 2.74 0.3
1 2 -4 3.24 0.33
1 2 -4 2.96 0.29
1 2 -4 2.98 0.3
-1 2 4 2.83 0.3
1 2 -4 3.23 0.35
1 2 -4 3.25 0.32
0 -2 4 123.87 8.65
0 -2 4 121.33 9.53
0 -2 -4 121.94 10.71
0 -2 -4 125.72 10.93
0 -2 -4 136.96 8.44
0 -2 4 129.17 10.26
0 -2 4 119.21 9.58
0 -2 4 125.36 9.93
0 -2 4 125.69 9.55
0 -2 4 136.23 10.98
0 -2 4 133.04 10.78
0 -2 -4 136.17 9.74
0 -2 -4 144.53 9.5
0 -2 -4 137.27 9.58
0 -2 4 130.2 10.61
0 -2 -4 138.39 8.99
0 -2 4 122.11 10.11
-1 -2 -4 10.86 0.82
1 -2 4 10.21 0.9
1 -2 4 10.61 0.87
1 -2 4 9.86 0.83
-1 -2 -4 10.74 0.83
-1 -2 -4 10.58 0.82
1 -2 4 10.08 0.94
1 -2 4 10.41 0.89
-1 -2 -4 10.92 0.78
1 -2 4 10.97 0.97
-1 -2 -4 9.45 0.81
-1 -2 -4 11.16 0.75
-1 2 -4 9.39 0.72
-1 2 -4 9.91 0.82
1 2 4 8.91 0.8
1 2 4 9.3 0.74
1 2 4 9.1 0.71
-1 2 -4 9.25 0.71
-1 2 -4 9.16 0.79
-1 2 -4 9.22 0.7
-1 2 -4 10.14 0.7
-1 2 -4 9.47 0.73
1 2 4 8.55 0.81
1 2 4 9.32 0.81
-2 -2 -4 389.57 23.42
-2 -2 -4 388.57 25.58
2 -2 4 370.2 29.5
2 -2 4 395.07 29.96
-2 -2 -4 387.92 25.84
2 -2 4 365.81 27.63
-2 -2 -4 387.89 24.93
2 -2 4 415.7 27.12
2 -2 4 415.58 30.51
2 -2 4 388.87 28.53
-2 -2 -4 353.43 26.56
-2 -2 -4 378.46 26.33
-2 2 -4 352.52 21.94
-2 2 -4 342.42 21.86
-2 2 -4 353.83 22.71
-2 2 -4 332.66 22.06
2 2 4 333.38 22.18
2 2 4 359.55 22.69
-2 2 -4 353.14 24.5
2 2 4 354.17 23.53
-2 2 -4 354.7 20.47
-2 2 -4 338.9 21.46
2 2 4 376.19 22.48
2 2 4 314.51 23.21
-2 2 -4 339.36 20.61
-2 2 -4 342.7 21.54
2 2 4 361.69 25.67
2 2 4 350.09 23.08
-2 2 -4 368.37 21.65
2 2 4 344.46 25.71
-2 2 -4 358.09 25.24
2 2 4 342.46 22.7
2 2 4 375.41 26.04
-2 2 -4 354.07 22.61
2 2 4 349.77 22.44
-3 -2 -4 20.91 1.62
3 -2 4 21.73 1.77
-3 -2 -4 21.6 1.62
3 -2 4 22.57 1.71
-3 -2 -4 21.03 1.46
-3 -2 -4 22.55 1.61
3 -2 4 21.21 1.67
3 -2 4 21.61 1.81
3 -2 4 22.52 1.88
-3 -2 -4 21.97 1.61
3 -2 4 20.58 1.91
3 2 4 21.81 1.6
3 2 4 16.91 1.47
-3 2 -4 21.08 1.35
3 2 4 20.16 1.44
-3 2 -4 21.34 1.38
3 2 4 19.34 1.46
-3 2 -4 19.18 1.39
-3 2 -4 20.31 1.43
3 2 4 21.87 1.62
-3 2 -4 19.57 1.55
-3 2 -4 20.3 1.4
3 2 4 20.18 1.42
-3 2 -4 19.9 1.38
3 2 4 20.16 1.4
3 2 4 20.36 1.37
3 2 4 20.36 1.4
3 2 4 20.92 1.46
3 2 4 18.37 1.48
3 2 4 20.1 1.57
-3 2 -4 19.39 1.36
-3 2 -4 20.26 1.61
-3 2 -4 19.14 1.41
-4 -2 -4 28.95 2.25
-4 -2 -4 32.69 2.28
4 -2 4 28.42 2.67
4 -2 4 29.13 2.56
4 -2 4 29.5 2.38
4 -2 4 26.65 2.31
-4 -2 -4 28.92 2.04
4 -2 4 30.47 2.64
-4 -2 -4 32.22 2.3
-4 -2 -4 33.15 2.42
4 -2 4 30.13 2.5
4 2 4 28.51 1.97
4 2 4 29.1 2.01
-4 2 -4 29.87 2.27
-4 2 -4 27.76 1.94
-4 2 -4 27.94 1.93
-4 2 -4 28.31 1.92
-4 2 -4 29.58 1.9
4 2 4 32.72 2.07
-4 2 -4 32.31 2.2
4 2 4 30.36 1.97
-4 2 -4 28.51 1.96
4 2 4 30.03 2.24
4 2 4 29.51 2.03
-4 2 -4 30.82 2.02
-4 2 -4 29.05 1.99
4 2 4 25.46 2.1
4 2 4 29.21 2.25
4 2 4 27.56 2.07
5 -2 4 3.5 0.53
-5 -2 -4 5.03 0.59
5 -2 4 4.8 0.65
-5 -2 -4 4.74 0.57
5 -2 4 4.49 0.63
-5 -2 -4 4.85 0.57
-5 -2 -4 5.01 0.6
5 -2 4 4.16 0.6
-5 -2 -4 4.04 0.56
5 -2 4 4.3 0.54
5 -2 4 4.87 0.6
5 2 4 5.62 0.57
5 2 4 5.63 0.51
5 2 4 4.96 0.47
-5 2 -4 6 0.54
-5 2 -4 5.35 0.51
-5 2 -4 5.46 0.49
5 2 4 4.93 0.46
-5 2 -4 5.41 0.59
5 2 4 5.01 0.57
-5 2 -4 6.37 0.64
5 2 4 5.85 0.52
5 2 4 5.37 0.5
-5 2 -4 5.76 0.58
-5 2 -4 5.25 0.53
5 2 4 6.03 0.61
-6 2 -4 11.81 0.88
-6 2 -4 10.69 0.9
6 2 4 12.19 0.89
6 2 4 10.48 0.83
6 2 4 11.66 0.95
6 2 4 11.43 0.89
6 2 4 11.8 0.99
-6 2 -4 11.9 1.01
6 2 4 11.18 0.89
6 2 4 11.44 0.97
-6 2 -4 9.85 0.84
-6 2 -4 11.67 1.05
-6 2 -4 12.3 0.93
7 -2 4 0.68 0.17
-7 2 -4 0.77 0.25
7 2 4 1.06 0.25
7 2 4 0.87 0.2
7 2 4 0.72 0.22
-7 2 -4 0.19 0.15
-7 2 -4 0.93 0.23
-7 2 -4 1.2 0.25
7 2 4 0.94 0.22
-7 2 -4 0.89 0.29
7 2 4 0.83 0.19
-7 2 -4 0.57 0.18
7 2 4 1.03 0.27
8 -2 4 60.53 3.8
8 -2 4 60.87 3.94
-8 2 -4 58.69 4.07
8 2 4 57.16 3.91
8 2 4 57.55 3.68
-8 2 -4 61.22 4.2
8 2 4 57.27 3.85
7 -3 -4 0.14 0.1
7 -3 -4 0.04 0.1
7 -3 -4 0.24 0.1
7 3 -4 0.13 0.14
7 3 -4 0.17 0.11
-7 3 4 0.14 0.13
-7 3 4 0.24 0.15
7 3 -4 0.32 0.13
-7 3 4 0.13 0.14
-6 3 4 12.93 1.06
-6 3 4 15.56 1.01
-6 3 4 14.5 0.97
6 3 -4 13.26 1.05
6 3 -4 12.99 0.94
6 3 -4 13.97 1.03
6 3 -4 11.55 0.94
-6 3 4 14.97 1.04
6 3 -4 13.29 1.01
6 3 -4 13.42 1
-6 3 4 13.06 0.98
6 3 -4 13.13 0.94
6 3 -4 12.25 0.92
6 3 -4 13.44 1.03
5 3 -4 10.15 0.89
5 3 -4 11.65 0.83
5 3 -4 11.34 0.91
5 3 -4 11.27 0.83
5 3 -4 10.56 0.92
5 3 -4 11.01 0.87
5 3 -4 9.75 0.82
-5 3 4 11.49 0.94
5 3 -4 9.5 0.8
5 3 -4 9.3 0.77
-5 3 4 10.63 0.86
-5 3 4 10.7 0.89
5 3 -4 11.01 0.82
-5 3 4 10.04 0.75
-5 3 4 11.24 0.86
-5 3 4 9.69 0.94
5 3 -4 9.95 0.9
5 3 -4 10.49 0.92
5 3 -4 11.07 0.81
4 3 -4 18.89 1.44
-4 3 4 18.26 1.38
-4 3 4 16.78 1.29
-4 3 4 18.39 1.2
4 3 -4 16.04 1.26
-4 3 4 16.78 1.33
4 3 -4 16.52 1.27
4 3 -4 16.63 1.28
4 3 -4 18.58 1.43
4 3 -4 16.67 1.24
4 3 -4 16.53 1.14
4 3 -4 18.35 1.29
4 3 -4 18.36 1.42
4 3 -4 18.99 1.32
-4 3 4 17.17 1.23
4 3 -4 18.2 1.41
4 3 -4 19.88 1.36
4 3 -4 16.38 1.37
4 3 -4 16.28 1.15
4 3 -4 17.8 1.38
4 3 -4 18.65 1.26
4 3 -4 18.6 1.39
-4 3 4 17.95 1.34
-4 3 4 17.18 1.43
4 3 -4 17.93 1.3
4 3 -4 18.49 1.27
3 -3 -4 4.4 0.59
-3 -3 4 3.64 0.58
3 -3 -4 3.79 0.63
3 -3 -4 4.52 0.58
3 -3 -4 4.49 0.56
-3 -3 4 4.1 0.54
-3 -3 4 4.47 0.58
3 -3 -4 4.37 0.59
3 3 -4 4.71 0.46
3 3 -4 5.43 0.54
3 3 -4 5.37 0.57
3 3 -4 5.45 0.57
3 3 -4 5.14 0.53
-3 3 4 4.54 0.48
-3 3 4 5.59 0.55
-3 3 4 4.8 0.54
3 3 -4 5.14 0.49
3 3 -4 5.32 0.48
3 3 -4 5.2 0.51
3 3 -4 5.46 0.51
3 3 -4 5.51 0.58
-3 3 4 5.15 0.57
3 3 -4 5.03 0.46
3 3 -4 5.16 0.51
3 3 -4 6.22 0.53
3 3 -4 5.31 0.48
-3 3 4 4.44 0.48
3 3 -4 5.17 0.54
3 3 -4 5.85 0.49
3 3 -4 5.75 0.58
-3 3 4 5.01 0.58
3 3 -4 5.08 0.53
3 3 -4 5.26 0.45
3 3 -4 5.43 0.55
-3 3 4 5.56 0.57
3 3 -4 5.21 0.54
3 3 -4 5.18 0.47
3 3 -4 4.71 0.51
-3 3 4 5.12 0.48
2 -3 -4 71.06 6.5
2 -3 -4 71.31 5.71
2 -3 -4 76.85 5.37
-2 -3 4 62.28 5.75
2 -3 -4 73.54 5.04
2 -3 -4 74.82 5.66
2 -3 -4 74.02 5.81
2 3 -4 78.38 4.67
2 3 -4 76.88 4.63
2 3 -4 73.46 4.79
-2 3 4 66.79 5.46
2 3 -4 76.15 5.55
2 3 -4 74.31 4.85
-2 3 4 71.75 4.86
2 3 -4 77.53 5.03
2 3 -4 77.8 4.43
-2 3 4 71.08 4.72
2 3 -4 76.07 5.23
-2 3 4 68.11 4.4
2 3 -4 79.89 4.95
2 3 -4 78.51 5.07
2 3 -4 78.33 4.44
2 3 -4 79.68 5.5
2 3 -4 78.22 4.86
2 3 -4 78 4.42
2 3 -4 75.36 4.85
2 3 -4 76.93 4.34
2 3 -4 79.26 4.59
2 3 -4 77.16 4.96
2 3 -4 77.53 4.73
2 3 -4 79.77 4.6
2 3 -4 74.84 4.69
-2 3 4 74 4.88
2 3 -4 74.01 4.81
2 3 -4 79.14 5.13
2 3 -4 80.11 4.81
-2 3 4 65.45 5.21
2 3 -4 77.68 4.76
2 3 -4 78.08 4.85
2 3 -4 79.06 4.68
2 3 -4 75.03 4.97
2 3 -4 77.49 4.73
-2 3 4 69.66 4.87
2 3 -4 78.7 4.38
-2 3 4 71.66 4.67
-2 3 4 70.66 4.79
-2 3 4 69.66 4.67
2 3 -4 84.7 5.43
2 3 -4 76.79 4.98
2 3 -4 79.57 5.49
1 -3 -4 4.56 0.5
1 -3 -4 3.69 0.49
-1 -3 4 3.62 0.43
-1 -3 4 3.52 0.47
-1 -3 4 3.32 0.47
1 -3 -4 3.89 0.5
-1 -3 4 3.46 0.47
-1 -3 4 3.45 0.45
1 -3 -4 3.81 0.51
1 -3 -4 3.73 0.47
-1 3 4 4.53 0.46
1 3 -4 4.74 0.45
1 3 -4 4.28 0.47
1 3 -4 3.97 0.41
1 3 -4 4.29 0.43
1 3 -4 4.58 0.45
1 3 -4 4.47 0.46
-1 3 4 4.42 0.42
1 3 -4 4.71 0.45
-1 3 4 4.06 0.44
-1 3 4 3.85 0.43
1 3 -4 4.52 0.42
-1 3 4 3.89 0.46
1 3 -4 4.52 0.52
1 3 -4 4.53 0.45
1 3 -4 4.45 0.42
-1 3 4 4.1 0.44
1 3 -4 4.33 0.48
-1 3 4 3.2 0.43
1 3 -4 4.5 0.45
1 3 -4 4.68 0.42
1 3 -4 4.53 0.41
1 3 -4 4.29 0.44
1 3 -4 4.65 0.44
1 3 -4 4 0.47
1 3 -4 4.31 0.48
-1 3 4 4.07 0.5
1 3 -4 4.31 0.44
1 3 -4 4.1 0.43
1 3 -4 4.28 0.44
1 3 -4 3.94 0.4
1 3 -4 4.47 0.44
1 3 -4 3.94 0.4
-1 3 4 3.83 0.44
-1 3 4 4.38 0.43
1 3 -4 4.76 0.45
-1 3 4 3.81 0.41
1 3 -4 4.51 0.43
1 3 -4 4.2 0.46
1 3 -4 4.69 0.42
1 3 -4 4.91 0.46
-1 3 4 3.77 0.46
1 3 -4 5.03 0.43
1 3 -4 4.03 0.48
1 3 -4 4.31 0.41
1 3 -4 4.47 0.41
1 3 -4 4.77 0.46
1 3 -4 4.17 0.46
1 3 -4 4.83 0.49
1 3 -4 4.33 0.39
1 3 -4 4.51 0.45
1 3 -4 4.32 0.46
0 -3 -4 70.12 5.55
0 -3 4 69.47 5.22
0 -3 4 67.52 5.64
0 -3 -4 78.34 5.53
0 -3 -4 67.09 5.62
0 -3 4 67.99 5.5
0 -3 -4 77.72 5.24
0 -3 -4 73.15 4.91
0 -3 4 63.77 5.54
0 -3 -4 74.56 5.38
0 3 -4 74.13 5.34
0 3 4 69.59 5.36
0 3 -4 79.38 5.32
0 3 4 61.35 4.64
0 3 -4 77.54 4.33
0 3 -4 76.21 5.13
0 3 -4 76.64 4.28
0 3 -4 76.39 4.94
0 3 4 70.39 4.75
0 3 -4 73.21 4.9
0 3 4 75.73 4.57
0 3 -4 79.12 4.77
0 3 4 70.69 4.7
0 3 -4 78.9 4.55
0 3 -4 78.26 4.59
0 3 -4 77.58 4.52
0 3 4 71.82 4.73
0 3 -4 78.26 4.49
0 3 -4 70.12 5.41
0 3 -4 79.15 4.74
0 3 -4 72.42 4.85
0 3 -4 75.54 5.35
0 3 -4 75.61 4.68
0 3 4 63.37 4.7
0 3 4 68.79 5.35
0 3 -4 79.93 4.35
0 3 4 70.9 4.52
0 3 4 67.52 5.42
0 3 4 61.66 4.88
0 3 -4 71.14 4.67
0 3 4 74.3 4.3
0 3 -4 74.8 4.55
0 3 -4 82.69 4.75
0 3 -4 81.87 4.34
0 3 -4 77.47 4.63
0 3 -4 77.54 4.51
0 3 -4 68.84 4.62
0 3 -4 78.71 4.75
0 3 -4 80.15 4.61
0 3 -4 74.76 4.81
0 3 -4 77.22 4.33
0 3 4 68.26 4.56
0 3 -4 78.43 4.23
1 -3 4 6.27 0.69
1 -3 4 6.13 0.68
1 -3 4 5.09 0.71
1 -3 4 6.88 0.69
-1 -3 -4 6.5 0.69
-1 -3 -4 6.45 0.68
-1 -3 -4 7.21 0.71
1 -3 4 5.88 0.76
-1 -3 -4 6.89 0.63
-1 -3 -4 6.31 0.62
-1 3 -4 7.13 0.59
-1 3 -4 6.31 0.55
1 3 4 7.22 0.59
1 3 4 6.56 0.66
-1 3 -4 7.56 0.6
-1 3 -4 7.04 0.53
-1 3 -4 6.39 0.63
-1 3 -4 6.92 0.55
-1 3 -4 6.93 0.57
-1 3 -4 7.46 0.71
-1 3 -4 7.11 0.6
1 3 4 6.88 0.55
1 3 4 6.88 0.57
-1 3 -4 8.18 0.7
-1 3 -4 6.92 0.56
-1 3 -4 6.15 0.55
1 3 4 6.12 0.59
1 3 4 7.48 0.6
-1 3 -4 6.97 0.56
1 3 4 6.03 0.56
1 3 4 7.01 0.53
-1 3 -4 7.7 0.55
-1 3 -4 7.28 0.62
1 3 4 6.6 0.58
-1 3 -4 8.47 0.65
1 3 4 6.17 0.58
-1 3 -4 7.33 0.6
-1 3 -4 7.17 0.54
-1 3 -4 6.99 0.59
-1 3 -4 6.44 0.63
1 3 4 6.09 0.56
1 3 4 6.73 0.66
1 3 4 6.52 0.57
-1 3 -4 6.33 0.58
-1 3 -4 7.78 0.61
1 3 4 7.41 0.67
-1 3 -4 6.4 0.63
-2 -3 -4 1.25 0.32
-2 -3 -4 0.88 0.29
2 -3 4 1.32 0.35
2 -3 4 1.2 0.3
-2 -3 -4 1.28 0.28
-2 -3 -4 0.8 0.26
2 -3 4 1.1 0.32
-2 -3 -4 0.65 0.26
2 -3 4 0.91 0.28
2 -3 4 0.96 0.29
-2 3 -4 1.52 0.3
-2 3 -4 1.34 0.24
2 3 4 1.02 0.24
-2 3 -4 1.28 0.22
2 3 4 1.23 0.23
2 3 4 0.97 0.24
-2 3 -4 1.39 0.28
-2 3 -4 2.41 0.41
-2 3 -4 1.11 0.23
-2 3 -4 1.43 0.25
-2 3 -4 2.16 0.36
-2 3 -4 1.93 0.32
2 3 4 0.73 0.19
2 3 4 1.93 0.35
2 3 4 1.25 0.27
-2 3 -4 1.1 0.27
-2 3 -4 1.41 0.27
-2 3 -4 1.87 0.4
2 3 4 1.56 0.34
-2 3 -4 1.23 0.35
2 3 4 1.08 0.26
2 3 4 0.58 0.25
2 3 4 1.28 0.23
-2 3 -4 1.35 0.26
2 3 4 1.44 0.28
-2 3 -4 1.24 0.3
2 3 4 1.01 0.24
2 3 4 1.24 0.26
-3 -3 -4 6.06 0.72
3 -3 4 6.37 0.76
-3 -3 -4 7.33 0.74
-3 -3 -4 7.27 0.76
3 -3 4 5.9 0.82
3 -3 4 5.21 0.79
-3 -3 -4 6.19 0.64
3 -3 4 5.79 0.73
3 -3 4 5.94 0.7
3 3 4 7.03 0.65
-3 3 -4 7.37 0.61
3 3 4 6.61 0.67
-3 3 -4 7.04 0.61
3 3 4 7.35 0.65
3 3 4 7.59 0.68
3 3 4 6.8 0.65
-3 3 -4 7.73 0.69
-3 3 -4 8.55 0.76
-3 3 -4 7.28 0.63
3 3 4 6.85 0.62
-3 3 -4 6.7 0.63
-3 3 -4 7.38 0.67
-3 3 -4 7.42 0.55
3 3 4 7.15 0.59
-3 3 -4 7.97 0.67
3 3 4 6.86 0.64
3 3 4 7.67 0.7
-3 3 -4 8 0.79
3 3 4 7.08 0.58
3 3 4 9.23 0.74
4 3 4 49.26 3.29
4 3 4 51.7 3.62
4 3 4 52.1 3.16
4 3 4 49.69 3.26
-4 3 -4 47.95 3.63
-4 3 -4 49.6 3.17
-4 3 -4 47.65 3.21
4 3 4 42.74 3.3
4 3 4 47.84 3.54
-4 3 -4 51.24 3.51
4 3 4 42.34 3.28
-4 3 -4 46.72 3.14
4 3 4 44.23 3.14
-4 3 -4 50.5 3.09
-4 3 -4 44.44 3.07
-4 3 -4 49.35 3.06
4 3 4 49.85 3.58
4 3 4 48.31 3.22
-4 3 -4 48.73 3.03
5 3 4 0.24 0.16
5 3 4 0.04 0.12
5 3 4 0.26 0.22
-5 3 -4 0.29 0.2
5 3 4 0.37 0.24
-5 3 -4 0.14 0.23
-5 3 -4 0.21 0.21
5 3 4 0.14 0.17
-5 3 -4 0.22 0.23
-5 3 -4 0.23 0.19
-5 3 -4 0.04 0.15
5 3 4 0.17 0.15
5 3 4 -0.07 0.19
5 3 4 0.04 0.13
5 3 4 0.1 0.19
-5 3 -4 0.17 0.22
-6 3 -4 37.23 2.45
6 3 4 38.07 2.62
6 3 4 40.21 2.49
-6 3 -4 41.77 2.76
6 3 4 38.25 2.52
6 3 4 37.53 2.46
6 3 4 34.66 2.55
6 3 4 38.39 2.6
-6 3 -4 39.17 2.53
-6 3 -4 39.2 2.84
-6 3 -4 37.06 2.42
6 3 4 37.14 2.54
-5 4 4 2.7 0.29
5 4 -4 2.93 0.3
5 4 -4 2.57 0.27
-4 4 4 37.55 2.61
-4 4 4 42.54 2.55
4 4 -4 35.22 2.56
4 4 -4 42.2 2.69
-4 4 4 39.51 2.56
4 4 -4 39.03 2.94
-4 4 4 42.07 2.64
4 4 -4 44.5 2.7
4 4 -4 42.42 2.56
4 4 -4 37.01 2.75
4 4 -4 41.66 2.74
-4 4 4 38.31 2.49
4 4 -4 37.96 2.65
4 4 -4 40.55 2.61
-4 4 4 39.77 2.36
-3 4 4 13.06 0.99
-3 4 4 12.95 0.93
3 4 -4 14.33 1.05
-3 4 4 14.3 0.98
3 4 -4 13.19 0.98
3 4 -4 13.75 1.02
-3 4 4 12.34 1.03
3 4 -4 14.94 1.15
-3 4 4 14.45 1.02
-3 4 4 13.25 1.01
3 4 -4 14.14 1.12
3 4 -4 14.25 0.99
-3 4 4 13.52 1.02
3 4 -4 12.8 1.02
3 4 -4 13.72 0.99
3 4 -4 14.02 1.08
3 4 -4 13.48 1.13
3 4 -4 13.54 1
2 4 -4 14.11 0.97
2 4 -4 13.98 0.94
-2 4 4 13.14 0.94
2 4 -4 12.95 0.93
-2 4 4 12.49 0.93
2 4 -4 11.2 1.04
-2 4 4 12.62 0.93
2 4 -4 12.65 0.94
-2 4 4 11.57 0.9
2 4 -4 11.66 0.93
-2 4 4 12.13 0.98
2 4 -4 12.18 0.95
2 4 -4 12.54 0.94
-2 4 4 10.65 0.9
2 4 -4 12.02 0.91
-2 4 4 11.24 0.92
2 4 -4 13.01 1.06
-2 4 4 12.47 0.87
2 4 -4 11.48 1.04
2 4 -4 13.1 0.91
2 4 -4 12.26 0.84
1 4 -4 11.8 0.93
1 4 -4 9.91 0.94
-1 4 4 10.78 0.83
-1 4 4 11.22 0.85
1 4 -4 11.46 0.86
-1 4 4 10.79 0.85
-1 4 4 8.46 0.92
-1 4 4 11.14 0.8
1 4 -4 10.99 0.95
1 4 -4 10.73 0.82
1 4 -4 10.3 0.81
1 4 -4 9.6 0.84
-1 4 4 10.76 0.83
-1 4 4 9.25 0.86
1 4 -4 11.31 0.77
-1 4 4 10.21 0.83
-1 4 4 10.73 0.94
1 4 -4 12.23 0.89
1 4 -4 11.43 0.82
1 4 -4 10.82 0.85
1 4 -4 10.93 0.85
1 4 -4 10.72 0.83
1 4 -4 11.43 0.85
1 4 -4 13.53 1
0 4 -4 23.8 1.62
0 4 4 20.43 1.88
0 4 -4 25.9 1.6
0 4 -4 23.04 1.86
0 4 -4 24.53 1.66
0 4 -4 24.38 1.5
0 4 -4 24.19 1.87
0 4 4 25.49 1.68
0 4 -4 22.92 1.64
0 4 4 25.15 1.53
0 4 4 25.82 1.68
0 4 4 21.83 1.86
0 4 4 26.28 1.63
0 4 -4 21.82 1.59
0 4 -4 20.56 1.84
0 4 -4 22.99 1.62
0 4 -4 22.19 1.87
0 4 -4 25.29 1.63
0 4 4 26.32 1.67
0 4 -4 25.57 1.58
0 4 4 22.52 1.58
0 4 -4 27.45 1.82
0 4 4 21.46 1.85
0 4 4 22.94 1.56
0 4 -4 26.08 1.69
1 4 4 1.55 0.31
1 4 4 1.54 0.3
-1 4 -4 1.46 0.29
-1 4 -4 1.76 0.31
1 4 4 1.49 0.26
-1 4 -4 1.13 0.29
1 4 4 1.36 0.3
-1 4 -4 1.6 0.28
1 4 4 0.94 0.26
-1 4 -4 1.66 0.29
-1 4 -4 1.72 0.31
1 4 4 1.23 0.28
-1 4 -4 1.24 0.28
-1 4 -4 1.52 0.31
-1 4 -4 1.65 0.35
-1 4 -4 1.85 0.26
1 4 4 1.65 0.28
1 4 4 1.84 0.32
-1 4 -4 1.2 0.3
1 4 4 1.39 0.26
1 4 4 1.49 0.22
-1 4 -4 1.62 0.27
-1 4 -4 1.59 0.38
-1 4 -4 1.86 0.32
-1 4 -4 1.67 0.28
1 4 4 1.26 0.26
2 4 4 65.03 4.27
-2 4 -4 60.8 3.79
-2 4 -4 56.75 3.74
-2 4 -4 58.39 4.24
2 4 4 49.92 3.57
-2 4 -4 50.7 3.71
-2 4 -4 63.81 4.1
2 4 4 61.62 3.92
2 4 4 66.61 4.34
-2 4 -4 59.49 3.6
-2 4 -4 59.3 3.68
-2 4 -4 53.42 3.55
-2 4 -4 57.89 3.65
2 4 4 49.54 3.81
2 4 4 64.66 3.74
2 4 4 49.53 3.73
2 4 4 54.84 3.36
2 4 4 54.38 3.72
2 4 4 59.72 3.75
-2 4 -4 57.3 3.59
2 4 4 55.75 4.26
-2 4 -4 63.09 3.39
3 4 4 1.51 0.27
-3 4 -4 1.04 0.3
3 4 4 0.92 0.21
-3 4 -4 1.11 0.29
3 4 4 1.14 0.25
-3 4 -4 1.31 0.32
3 4 4 1.28 0.25
3 4 4 0.61 0.24
3 4 4 0.77 0.24
-3 4 -4 1.35 0.27
-3 4 -4 1.36 0.29
-3 4 -4 1.28 0.22
3 4 4 1.41 0.29
3 4 4 1.64 0.29
-3 4 -4 1.03 0.23
-3 4 -4 1.04 0.22
3 4 4 1.51 0.26
3 4 4 1.74 0.29
4 4 4 9.08 0.82
-4 4 -4 12.64 0.88
-4 4 -4 9.41 0.8
4 4 4 12.24 0.85
4 4 4 12.79 0.96
-4 4 -4 9.91 0.81
4 4 4 12.39 0.89
-4 4 -4 13.02 0.96
4 4 4 11.86 0.94
4 4 4 12.05 0.87
-4 4 -4 10.6 0.96
-4 4 -4 10.74 0.79
4 4 4 13.26 0.9
-4 4 -4 13.22 0.84
-9 0 5 19.96 1.33
9 0 -5 19.35 1.34
9 0 -5 19.73 1.34
-9 0 5 20.6 1.44
8 0 -5 -0.04 0.13
8 0 -5 -0.05 0.1
-8 0 5 0.04 0.13
8 0 -5 0.12 0.14
-8 0 5 0 0.12
8 0 -5 0.14 0.14
8 0 -5 0.17 0.11
8 0 -5 0.2 0.12
7 0 -5 119.27 7.01
7 0 -5 125.07 7.47
7 0 -5 109.31 7.61
7 0 -5 106.39 7.07
7 0 -5 113.64 7.46
7 0 -5 119.31 7.7
6 0 -5 0.11 0.13
6 0 -5 -0.03 0.13
6 0 -5 -0.12 0.12
6 0 -5 -0.01 0.11
6 0 -5 0.06 0.15
6 0 -5 0.04 0.11
-6 0 5 0.01 0.11
6 0 -5 0.09 0.12
-6 0 5 0.15 0.13
-6 0 5 0.02 0.13
-6 0 5 0.07 0.14
-6 0 5 0.15 0.15
-6 0 5 0.06 0.12
6 0 -5 -0.01 0.11
6 0 -5 0.09 0.15
5 0 -5 91.46 7.25
5 0 -5 82.21 5.29
5 0 -5 82.07 5.56
-5 0 5 92.67 6.47
5 0 -5 76 5.67
5 0 -5 82.65 5.54
-5 0 5 93.07 6.19
5 0 -5 91.24 6.92
-5 0 5 95.05 6.59
5 0 -5 79.04 5.39
-5 0 5 80.88 6.44
5 0 -5 84.61 5.23
-5 0 5 90.29 6.44
-5 0 5 76.85 6.43
-5 0 5 85.97 6.23
5 0 -5 86.47 5.74
5 0 -5 95.54 7.18
4 0 -5 -0.1 0.09
-4 0 5 0.19 0.11
4 0 -5 -0.03 0.09
-4 0 5 -0.01 0.07
-4 0 5 0.11 0.09
-4 0 5 0.03 0.1
4 0 -5 -0.02 0.08
-4 0 5 0.05 0.08
4 0 -5 -0.04 0.06
4 0 -5 0.02 0.09
4 0 -5 0.1 0.1
4 0 -5 0.02 0.1
-4 0 5 0 0.06
-4 0 5 -0.03 0.07
4 0 -5 0.01 0.1
-4 0 5 -0.01 0.07
4 0 -5 0.15 0.1
4 0 -5 -0.07 0.04
-3 0 5 94.2 7.2
-3 0 5 101.59 7.54
-3 0 5 102.72 7.23
3 0 -5 103.49 8.48
-3 0 5 106.13 7.69
-3 0 5 100.58 7.3
-3 0 5 102.16 7.55
3 0 -5 117.63 8.39
3 0 -5 110.79 8.09
3 0 -5 86.38 7.64
3 0 -5 99.14 8.62
-3 0 5 99.7 7.57
-2 0 5 0.09 0.06
-2 0 5 0.04 0.05
2 0 -5 0 0.03
2 0 -5 0.16 0.08
-2 0 5 0.04 0.04
-2 0 5 0.04 0.06
2 0 -5 0.09 0.06
-2 0 5 0.04 0.05
-2 0 5 0.05 0.05
2 0 -5 -0.01 0.02
2 0 -5 0.04 0.04
2 0 -5 0.03 0.05
-2 0 5 0.01 0.04
1 0 -5 827.75 64.39
1 0 -5 976.76 74.56
1 0 -5 841.23 61.01
1 0 -5 914.24 66.26
0 0 5 -0.37 0.04
0 0 5 -0.2 0.07
0 0 5 -0.12 0.08
0 0 -5 -0.46 0.06
0 0 5 -0.42 0.04
0 0 -5 -0.43 0.04
0 0 5 -0.45 0.04
0 0 -5 -0.45 0.04
0 0 5 -0.34 0.05
0 0 5 -0.39 0.05
0 0 -5 -0.44 0.04
0 0 -5 -0.47 0.05
0 0 -5 -0.43 0.02
0 0 -5 -0.48 0.04
0 0 5 -0.3 0.05
0 0 5 -0.41 0.04
-1 0 -5 230.82 15.87
-1 0 -5 220.23 16.26
-1 0 -5 224.12 14.9
-1 0 -5 211.24 16.42
1 0 5 235.25 16.91
1 0 5 201.82 18.13
-1 0 -5 227.26 16.76
1 0 5 261.98 17.95
-1 0 -5 229.38 16.92
1 0 5 266.61 17.02
1 0 5 229.8 17.6
1 0 5 237.61 18.78
-1 0 -5 204.84 16.21
1 0 5 253.63 16.89
-2 0 -5 -0.16 0.08
2 0 5 -0.16 0.07
2 0 5 -0.15 0.05
2 0 5 -0.04 0.08
2 0 5 -0.12 0.06
-2 0 -5 -0.09 0.06
-2 0 -5 -0.15 0.06
-2 0 -5 -0.16 0.07
2 0 5 -0.19 0.06
2 0 5 -0.04 0.07
-2 0 -5 -0.17 0.08
2 0 5 0.02 0.07
-2 0 -5 -0.05 0.08
-2 0 -5 -0.14 0.06
3 0 5 45.38 3.07
-3 0 -5 42.55 2.99
3 0 5 40.53 3.26
3 0 5 44.55 3.19
3 0 5 34.84 3.4
3 0 5 40.72 3.24
3 0 5 33.92 3.45
-3 0 -5 43.68 2.71
3 0 5 40.59 3.39
-3 0 -5 41.37 2.95
-3 0 -5 39.03 3.1
-3 0 -5 42.39 2.97
-3 0 -5 42.22 3.03
-3 0 -5 36.37 3.03
4 0 5 0.07 0.1
-4 0 -5 0.16 0.12
-4 0 -5 0.12 0.11
-4 0 -5 0.05 0.12
-4 0 -5 -0.04 0.04
-4 0 -5 -0.01 0.06
4 0 5 -0.01 0.04
4 0 5 -0.03 0.05
4 0 5 0.58 0.16
-4 0 -5 0.07 0.11
4 0 5 0.08 0.1
-4 0 -5 0.04 0.11
4 0 5 0.11 0.11
-4 0 -5 0.09 0.09
4 0 5 0.02 0.08
5 0 5 163.82 12.22
5 0 5 156.55 13.02
-5 0 -5 133.68 11.91
-5 0 -5 159.83 10.32
5 0 5 172.25 11.73
-5 0 -5 157.32 11.26
5 0 5 144.29 12.54
-5 0 -5 170.92 11.3
5 0 5 156.51 10.12
-5 0 -5 178.18 11.43
5 0 5 151.86 10.15
6 0 5 0.05 0.13
-6 0 -5 0.17 0.13
6 0 5 0.05 0.15
6 0 5 0.12 0.14
-6 0 -5 -0.11 0.17
6 0 5 0.06 0.09
6 0 5 -0.04 0.11
6 0 5 0.01 0.1
-6 0 -5 0.11 0.15
6 0 5 0.07 0.11
6 0 5 0.29 0.17
6 0 5 -0.01 0.15
-6 0 -5 0.01 0.15
6 0 5 0.02 0.14
7 0 5 125.4 8.37
-7 0 -5 125.95 9.2
-7 0 -5 123.84 7.83
7 0 5 113.29 8.24
7 0 5 139.78 8.49
7 0 5 140.11 8.63
-7 0 -5 119.86 8.92
-7 0 -5 145.27 7.87
-7 0 -5 135.45 7.99
7 0 5 136.17 8.1
7 0 5 131.36 8.68
-8 0 -5 0.15 0.14
8 0 5 0.13 0.14
-8 0 -5 0.39 0.15
8 0 5 0.43 0.16
8 0 5 0.19 0.12
-8 0 -5 0.37 0.17
8 0 5 0.2 0.13
-8 0 -5 0.18 0.15
8 0 5 0.25 0.13
-8 0 -5 0.04 0.13
8 -1 -5 0.37 0.13
8 -1 -5 0.23 0.14
8 -1 -5 0.06 0.1
8 -1 -5 0.14 0.12
8 -1 -5 0.16 0.12
8 1 -5 0.19 0.14
-8 1 5 0.32 0.18
8 1 -5 0.29 0.16
-8 1 5 0.3 0.17
-8 1 5 0.33 0.17
-8 1 5 0.31 0.15
-8 1 5 0.18 0.13
8 1 -5 0.27 0.15
8 1 -5 0.19 0.13
8 1 -5 0.2 0.14
7 -1 -5 2.86 0.34
7 -1 -5 2.78 0.33
7 -1 -5 2.46 0.31
7 -1 -5 4.4 0.36
7 -1 -5 3 0.35
-7 1 5 3.4 0.41
-7 1 5 2.94 0.39
7 1 -5 3.15 0.44
-7 1 5 3.24 0.4
-7 1 5 3.29 0.38
7 1 -5 3.37 0.36
7 1 -5 3.16 0.38
7 1 -5 3.08 0.36
7 1 -5 2.7 0.36
-7 1 5 3.28 0.43
7 1 -5 2.84 0.37
7 1 -5 2.66 0.36
-6 -1 5 1.7 0.33
6 -1 -5 1.71 0.38
-6 -1 5 1.56 0.35
-6 -1 5 2.06 0.35
6 -1 -5 1.72 0.4
6 -1 -5 1.56 0.27
-6 -1 5 1.63 0.34
6 -1 -5 1.62 0.4
6 -1 -5 2.05 0.32
6 -1 -5 1.4 0.37
6 -1 -5 1.71 0.28
6 -1 -5 1.95 0.32
-6 -1 5 2.01 0.38
6 -1 -5 1.56 0.25
6 -1 -5 1.76 0.3
-6 -1 5 1.86 0.38
6 1 -5 1.51 0.3
6 1 -5 1.85 0.33
6 1 -5 1.56 0.28
-6 1 5 1.63 0.38
-6 1 5 3.18 0.52
6 1 -5 2.06 0.37
6 1 -5 2.02 0.33
6 1 -5 1.61 0.26
-6 1 5 1.78 0.42
-6 1 5 1.91 0.37
6 1 -5 2.4 0.36
-6 1 5 2.16 0.37
-6 1 5 1.8 0.29
6 1 -5 1.93 0.32
-5 -1 5 106.33 8.21
5 -1 -5 118.41 9.74
-5 -1 5 114.39 8.15
5 -1 -5 120.14 9.13
-5 -1 5 118.77 8.51
-5 -1 5 115.97 8.67
5 -1 -5 115.68 9.58
-5 -1 5 113.22 8.55
5 -1 -5 116 9.44
-5 -1 5 118.53 8.52
5 1 -5 107.3 7.07
5 1 -5 115.43 7.41
-5 1 5 118.34 8.28
-5 1 5 123.33 8.74
5 1 -5 111.7 7.53
5 1 -5 110.42 7.03
-5 1 5 122.08 8.22
5 1 -5 101.79 7.14
-5 1 5 114.09 8.55
5 1 -5 112.95 7.39
5 1 -5 109.02 6.95
5 1 -5 115.19 7.6
5 1 -5 109.08 7.36
-4 -1 5 2.12 0.28
-4 -1 5 1.65 0.25
4 -1 -5 1.76 0.28
-4 -1 5 1.74 0.25
-4 -1 5 2.07 0.34
4 -1 -5 1.77 0.24
-4 -1 5 1.67 0.23
-4 -1 5 1.93 0.25
4 -1 -5 1.91 0.27
4 -1 -5 1.69 0.27
4 -1 -5 1.89 0.29
-4 1 5 1.84 0.25
4 1 -5 1.76 0.28
-4 1 5 2.46 0.37
4 1 -5 1.95 0.31
4 1 -5 1.95 0.25
-4 1 5 2.16 0.37
-4 1 5 1.73 0.32
4 1 -5 1.5 0.23
4 1 -5 1.8 0.28
4 1 -5 2.16 0.29
4 1 -5 1.65 0.23
4 1 -5 1.88 0.25
4 1 -5 2.19 0.3
4 1 -5 1.37 0.26
4 1 -5 2.03 0.28
4 1 -5 1.8 0.24
-4 1 5 2 0.3
3 -1 -5 261.38 19.5
3 -1 -5 225.84 18.17
-3 -1 5 262.42 18.18
3 -1 -5 254.75 20.83
3 -1 -5 275.7 20.18
-3 -1 5 220.93 17.42
-3 -1 5 260.98 18.19
-3 -1 5 250.11 17.43
-3 -1 5 249.33 18.52
3 -1 -5 224.75 17.02
3 -1 -5 264.6 20.48
3 -1 -5 260.15 18.51
-3 -1 5 240.19 17.63
-3 1 5 252.19 17.67
-3 1 5 253.99 17.47
-3 1 5 251.91 18.57
-3 1 5 229.54 18.21
-3 1 5 218.94 18.18
2 -1 -5 4.98 0.45
-2 -1 5 4.56 0.4
-2 -1 5 4.89 0.44
2 -1 -5 5.42 0.5
-2 -1 5 4.86 0.41
2 -1 -5 5.15 0.42
2 -1 -5 5.22 0.47
2 -1 -5 5.09 0.46
-2 -1 5 5.31 0.44
2 -1 -5 5.29 0.51
-2 -1 5 4.42 0.38
2 -1 -5 4.5 0.4
2 -1 -5 5.18 0.44
-2 -1 5 4.99 0.44
-2 1 5 4.74 0.44
-2 1 5 5.46 0.44
-2 1 5 5.37 0.47
-2 1 5 4.25 0.42
-2 1 5 4.8 0.46
-2 1 5 5.56 0.48
-1 -1 5 2.41 0.19
1 -1 -5 2.1 0.23
1 -1 -5 2.05 0.22
-1 -1 5 1.71 0.18
-1 -1 5 2.36 0.21
-1 -1 5 1.85 0.21
1 -1 -5 2.25 0.22
1 -1 -5 2.16 0.22
1 -1 -5 2.14 0.25
-1 -1 5 1.96 0.21
1 -1 -5 1.97 0.24
-1 -1 5 1.77 0.2
-1 1 5 2.72 0.25
-1 1 5 1.84 0.21
-1 1 5 1.49 0.2
-1 1 5 2.19 0.23
-1 1 5 2.33 0.24
0 -1 -5 69.02 5.2
0 -1 5 72.8 5.26
0 -1 -5 70.79 4.92
0 -1 5 68.71 5.46
0 -1 5 71.99 5.22
0 -1 5 69.95 5.24
0 -1 5 71.28 5.22
0 -1 5 68.22 5.56
0 -1 -5 66.7 5.88
0 -1 -5 71.83 6
0 -1 -5 70.03 4.62
0 -1 -5 71.86 5.34
0 -1 5 72.25 5.26
0 -1 -5 70.93 5.25
0 -1 5 74.51 4.76
0 -1 5 73.49 5.25
0 1 5 71.39 5.28
0 1 5 79.64 5.27
0 1 5 59.66 5.21
0 1 5 79.45 5.26
0 1 5 69.82 5.27
0 1 5 65.09 5.55
1 -1 5 234.73 18.53
1 -1 5 248.48 17.47
1 -1 5 258.36 18.77
-1 -1 -5 255 15.4
1 -1 5 234.21 19.42
-1 -1 -5 250.52 17.79
1 -1 5 240.33 18.19
-1 -1 -5 248.88 17.49
-1 -1 -5 227.97 19.99
-1 -1 -5 254.84 17.32
1 -1 5 229.67 17.55
-1 -1 -5 250.33 16.4
-1 -1 -5 229.64 16.98
-1 -1 -5 240.21 16.81
1 1 5 236.19 18.55
1 1 5 201.44 18.16
-1 1 -5 223.57 16.8
1 1 5 259.09 17.59
1 1 5 225.44 17.46
-1 1 -5 224.72 16.97
-2 -1 -5 -0.04 0.07
2 -1 5 0.2 0.11
2 -1 5 0.17 0.1
-2 -1 -5 -0.08 0.07
-2 -1 -5 -0.09 0.06
2 -1 5 -0.04 0.08
-2 -1 -5 0.11 0.1
2 -1 5 -0.02 0.05
-2 -1 -5 -0.08 0.06
-2 -1 -5 0.16 0.09
-2 -1 -5 -0.04 0.08
2 -1 5 0.03 0.1
-2 1 -5 -0.17 0.05
2 1 5 -0.1 0.06
2 1 5 0.35 0.12
2 1 5 -0.12 0.06
2 1 5 -0.09 0.05
-2 1 -5 -0.06 0.07
-2 1 -5 -0.02 0.08
2 1 5 -0.1 0.06
-2 1 -5 -0.07 0.09
-2 1 -5 -0.08 0.04
3 -1 5 342.07 23.49
3 -1 5 362.3 26.95
-3 -1 -5 331.24 23.29
-3 -1 -5 306.21 23.96
-3 -1 -5 329.59 22.85
-3 -1 -5 297.74 22.03
3 -1 5 328.44 26.11
-3 -1 -5 336.07 22.62
3 -1 5 329.32 26.48
3 -1 5 330.42 25.23
-3 -1 -5 308.73 22.56
3 -1 5 316.23 24.91
3 -1 5 291.68 24.45
-3 -1 -5 333.9 20.71
3 1 5 358.72 24.98
-3 1 -5 280.52 22.55
3 1 5 327.07 23.5
-3 1 -5 281 22.85
3 1 5 297.54 24.45
-3 1 -5 330.63 20.73
-3 1 -5 314.98 22.65
-4 -1 -5 7.63 0.68
-4 -1 -5 7.53 0.67
4 -1 5 6.57 0.64
-4 -1 -5 8.15 0.6
4 -1 5 7.95 0.72
4 -1 5 7.3 0.73
4 -1 5 8.38 0.7
-4 -1 -5 7.88 0.66
-4 -1 -5 6.77 0.65
4 -1 5 6.92 0.74
-4 -1 -5 7.58 0.64
4 -1 5 8.48 0.65
4 -1 5 8.5 0.75
-4 -1 -5 7.98 0.67
4 1 5 6.85 0.57
-4 1 -5 7.98 0.7
-4 1 -5 6.71 0.56
4 1 5 7.01 0.58
-4 1 -5 7.58 0.71
-4 1 -5 7.9 0.67
-4 1 -5 6.49 0.61
-4 1 -5 6.41 0.54
4 1 5 7.06 0.68
-4 1 -5 6.64 0.64
4 1 5 5.62 0.58
4 1 5 7.21 0.61
4 1 5 7.21 0.55
4 1 5 7.12 0.63
4 1 5 6.92 0.57
4 1 5 6.11 0.61
-4 1 -5 6.97 0.57
4 1 5 6.8 0.57
-4 1 -5 7.05 0.57
-4 1 -5 7.24 0.59
-4 1 -5 7.67 0.58
-4 1 -5 6.38 0.54
4 1 5 7.7 0.67
5 -1 5 51.94 4.09
5 -1 5 44.97 3.63
5 -1 5 44.15 3.93
-5 -1 -5 42.6 3.65
-5 -1 -5 47.52 3.22
-5 -1 -5 49.54 3.55
-5 -1 -5 51.39 3.6
-5 -1 -5 45.81 3.73
-5 -1 -5 48.13 3.54
5 -1 5 53.12 3.84
5 -1 5 45.05 4.12
5 1 5 48.57 3.08
-5 1 -5 49.75 3.51
5 1 5 48.09 3.32
-5 1 -5 47.89 3.07
-5 1 -5 50.04 3.63
5 1 5 50.41 3.68
-5 1 -5 49.01 3
5 1 5 44.71 3.81
-5 1 -5 44.91 3.13
5 1 5 47.84 3.18
-5 1 -5 49.56 3.06
-5 1 -5 49.04 2.99
5 1 5 48.5 3.14
-5 1 -5 48.47 3.55
5 1 5 45.15 3.18
5 1 5 49.35 3.24
5 1 5 49.83 3.3
-5 1 -5 46.71 3.39
5 1 5 47.51 3.09
-5 1 -5 51.38 3.6
-6 -1 -5 20.48 1.71
6 -1 5 17.4 1.91
-6 -1 -5 19.86 1.67
-6 -1 -5 19.93 1.76
-6 -1 -5 20.01 1.67
6 -1 5 19.53 1.85
6 -1 5 17.78 1.9
6 -1 5 19.47 1.8
-6 1 -5 22.97 1.63
6 1 5 24.79 1.6
-6 1 -5 22.61 1.45
-6 1 -5 23.38 1.69
-6 1 -5 19.06 1.68
-6 1 -5 24.62 1.45
6 1 5 23.64 1.47
6 1 5 22.54 1.49
6 1 5 21.78 1.49
-6 1 -5 21.15 1.71
-6 1 -5 24.68 1.5
-6 1 -5 20.61 1.73
6 1 5 17.93 1.78
6 1 5 21.74 1.58
-6 1 -5 19.19 1.46
-6 1 -5 21.19 1.39
6 1 5 22.83 1.55
7 -1 5 40.46 2.73
7 -1 5 43.73 2.82
7 -1 5 39.33 2.61
7 -1 5 43.77 2.77
7 -1 5 35.68 2.7
7 -1 5 40.85 2.83
7 1 5 40.92 2.84
7 1 5 39.49 2.85
7 1 5 42.35 2.8
-7 1 -5 43.02 2.59
7 1 5 42.53 2.67
-7 1 -5 39.54 2.6
-7 1 -5 42.25 2.95
-7 1 -5 42.06 3.05
7 1 5 46.09 2.72
-7 1 -5 37.07 2.69
7 1 5 35.82 2.71
-7 1 -5 44.35 2.68
-8 -1 -5 -0.04 0.14
8 -1 5 0.1 0.13
8 -1 5 0.19 0.13
-8 -1 -5 0.21 0.14
-8 -1 -5 -0.03 0.12
8 -1 5 0.1 0.11
-8 -1 -5 0.18 0.14
8 -1 5 0.07 0.11
8 1 5 0.06 0.13
-8 1 -5 0.19 0.15
8 1 5 0.16 0.13
-8 1 -5 0.06 0.13
8 1 5 0.19 0.12
8 1 5 0.13 0.1
-8 1 -5 0.09 0.13
-8 1 -5 -0.05 0.11
8 1 5 0.16 0.13
8 -2 -5 0.01 0.09
8 -2 -5 0.05 0.09
8 -2 -5 0.1 0.1
8 -2 -5 0.08 0.09
8 2 -5 -0.05 0.11
8 2 -5 0.1 0.11
8 2 -5 0.03 0.12
-8 2 5 0.04 0.11
-8 2 5 0.09 0.12
-8 2 5 0.23 0.14
8 2 -5 0.11 0.13
-8 2 5 0.18 0.14
7 -2 -5 53.36 3.35
7 -2 -5 53.18 3.17
7 -2 -5 53.49 3.2
7 -2 -5 44.34 3.45
7 -2 -5 56.09 3.38
7 -2 -5 43.58 3.22
7 2 -5 52.52 3.41
-7 2 5 57.66 3.28
-7 2 5 53.18 3.21
7 2 -5 53.75 3.43
7 2 -5 49.87 3.46
-7 2 5 44.14 3.69
7 2 -5 52.12 3.51
-7 2 5 56.89 3.4
7 2 -5 47.25 3.18
7 2 -5 47.17 3.22
-7 2 5 55.08 3.64
7 2 -5 51.41 3.4
-7 2 5 50.33 3.31
6 -2 -5 0.96 0.21
6 2 -5 0.73 0.24
6 2 -5 0.79 0.27
6 2 -5 0.92 0.24
6 2 -5 0.98 0.25
6 2 -5 0.77 0.25
-6 2 5 0.81 0.25
6 2 -5 0.82 0.23
6 2 -5 0.86 0.29
-6 2 5 1.05 0.3
-6 2 5 0.9 0.3
-6 2 5 1.11 0.3
-6 2 5 1.2 0.33
6 2 -5 0.74 0.19
-6 2 5 0.94 0.24
6 2 -5 0.89 0.21
5 -2 -5 71.02 6.12
5 -2 -5 65.53 5.69
-5 -2 5 70.67 5.35
-5 -2 5 67.45 5.11
-5 -2 5 68.62 5.44
-5 -2 5 71.86 5.39
-5 -2 5 70.99 5.35
5 -2 -5 65.7 5.99
5 -2 -5 64.8 5.41
-5 2 5 69.85 5.08
5 2 -5 66.63 4.45
5 2 -5 75.37 4.76
5 2 -5 73.32 4.45
-5 2 5 70.84 4.12
-5 2 5 76.11 4.5
5 2 -5 69.55 4.53
5 2 -5 62.69 4.49
-5 2 5 75.68 4.66
5 2 -5 75.3 4.67
5 2 -5 73.42 4.69
5 2 -5 72.08 4.71
5 2 -5 65.95 4.41
5 2 -5 65.53 4.44
5 2 -5 70.91 4.59
-5 2 5 74.82 4.59
-5 2 5 76.49 4.42
-5 2 5 74.06 5
5 2 -5 75.12 4.82
-5 2 5 63.32 5.52
4 -2 -5 11.28 1
4 -2 -5 9.4 0.85
4 -2 -5 10.97 0.97
4 -2 -5 8.52 0.89
4 -2 -5 10.2 0.93
-4 -2 5 10.87 0.98
-4 -2 5 11.08 0.96
4 -2 -5 11.15 1.07
4 -2 -5 11.37 1.1
-4 -2 5 10.99 0.91
-4 -2 5 12.49 0.98
-4 -2 5 11.44 0.98
4 2 -5 11.37 0.91
4 2 -5 10.32 0.73
4 2 -5 10.49 0.75
4 2 -5 9.42 0.83
4 2 -5 10.8 0.76
4 2 -5 11.97 0.91
4 2 -5 10.25 0.89
4 2 -5 10.19 0.85
4 2 -5 9.87 0.74
4 2 -5 11.73 0.82
4 2 -5 12.27 0.82
-4 2 5 10.65 0.85
4 2 -5 12.14 0.9
4 2 -5 11.18 0.81
4 2 -5 10.25 0.88
-4 2 5 9.44 1.05
-4 2 5 10.12 0.95
4 2 -5 9.6 0.83
4 2 -5 11.1 0.85
4 2 -5 10.01 0.81
-4 2 5 10.08 0.86
-4 2 5 7.86 0.97
-4 2 5 11.37 0.91
4 2 -5 11.06 0.78
4 2 -5 12.64 0.89
-4 2 5 10.68 0.79
-4 2 5 11.51 0.85
4 2 -5 9.95 0.72
-4 2 5 10.82 0.95
4 2 -5 10.22 0.88
-4 2 5 10.78 0.76
-3 -2 5 37.89 2.79
-3 -2 5 35.38 2.67
3 -2 -5 39.95 3.14
3 -2 -5 36.66 2.95
-3 -2 5 40.29 2.8
3 -2 -5 39.43 2.85
3 -2 -5 37.85 2.79
3 -2 -5 35.66 2.75
-3 -2 5 37.41 2.66
-3 -2 5 38.64 2.83
3 -2 -5 39.01 3.2
3 -2 -5 36.76 2.61
3 2 -5 35.38 2.34
3 2 -5 34.98 2.16
3 2 -5 37.59 2.47
3 2 -5 35.2 2.37
3 2 -5 35.74 2.17
-3 2 5 30.2 2.57
-3 2 5 37.13 2.3
3 2 -5 37.94 2.45
-3 2 5 32.07 2.15
3 2 -5 36.08 2.16
3 2 -5 34.83 2.13
3 2 -5 36.01 2.17
3 2 -5 38.22 2.49
-3 2 5 31.66 2.4
-3 2 5 32.41 2.83
3 2 -5 40.67 2.35
3 2 -5 36.66 2.37
3 2 -5 36.31 2.24
3 2 -5 38.64 2.17
3 2 -5 36.46 2.45
-3 2 5 37.9 2.93
3 2 -5 33.74 2.33
3 2 -5 33.98 2.66
3 2 -5 34.34 2.37
3 2 -5 40.29 2.35
3 2 -5 39.15 2.45
-3 2 5 32.72 2.3
3 2 -5 35.25 2.4
3 2 -5 38.23 2.28
-3 2 5 30.63 2.33
3 2 -5 36.43 2.67
3 2 -5 38.95 2.53
3 2 -5 38.14 2.15
-3 2 5 33.07 2.37
3 2 -5 36.21 2.32
3 2 -5 34.91 2.24
3 2 -5 36.93 2.16
-3 2 5 32.1 2.39
3 2 -5 34.07 2.69
3 2 -5 36.83 2.11
-3 2 5 31.92 2.33
-2 -2 5 0.22 0.11
2 -2 -5 0.26 0.11
2 -2 -5 0.2 0.11
2 -2 -5 0.31 0.15
2 -2 -5 0.23 0.12
2 -2 -5 0.36 0.15
2 -2 -5 0.27 0.14
-2 -2 5 0.71 0.17
-2 -2 5 0.19 0.13
-2 -2 5 0.31 0.12
-2 -2 5 0.2 0.12
-2 -2 5 0.46 0.13
-2 -2 5 0.21 0.09
2 -2 -5 0.19 0.11
2 2 -5 0.56 0.19
2 2 -5 0.75 0.15
2 2 -5 0.24 0.12
2 2 -5 0.27 0.13
2 2 -5 0.32 0.15
-2 2 5 0.41 0.14
2 2 -5 0.32 0.18
2 2 -5 0.24 0.13
2 2 -5 0.42 0.12
2 2 -5 0.16 0.12
2 2 -5 0.53 0.18
2 2 -5 0.45 0.14
-2 2 5 0.59 0.16
-2 2 5 0.25 0.13
2 2 -5 0.19 0.12
-2 2 5 0.17 0.12
2 2 -5 0.26 0.14
-2 2 5 0.49 0.16
-2 2 5 0.15 0.12
2 2 -5 0.18 0.1
-2 2 5 0.09 0.13
2 2 -5 0.33 0.13
2 2 -5 0.33 0.18
-2 2 5 0.22 0.13
2 2 -5 0.38 0.18
2 2 -5 0.26 0.15
2 2 -5 0.58 0.17
-2 2 5 0.43 0.19
2 2 -5 0.67 0.18
2 2 -5 0.71 0.18
2 2 -5 0.22 0.11
2 2 -5 0.41 0.15
2 2 -5 0.2 0.14
2 2 -5 0.31 0.14
2 2 -5 0.36 0.13
2 2 -5 0.37 0.14
2 2 -5 0.44 0.16
2 2 -5 0.46 0.17
-2 2 5 0.54 0.2
2 2 -5 0.33 0.14
2 2 -5 0.27 0.13
2 2 -5 0.44 0.15
2 2 -5 0.23 0.14
2 2 -5 0.53 0.15
2 2 -5 0.15 0.1
2 2 -5 0.36 0.16
-2 2 5 0.45 0.18
2 2 -5 0.24 0.13
2 2 -5 0.27 0.17
2 2 -5 0.14 0.13
1 -2 -5 196.5 13.37
1 -2 -5 205.89 13.51
1 -2 -5 206.13 13.75
1 -2 -5 210.27 12.68
1 -2 -5 188.96 15.15
1 -2 -5 210.87 15.45
1 2 -5 179.52 11.38
1 2 -5 187.65 11.97
1 2 -5 180.82 11.4
1 2 -5 183.8 10.93
1 2 -5 179.26 13.01
1 2 -5 178.69 10.38
1 2 -5 172.99 13.19
-1 2 5 166.4 13.52
1 2 -5 180.01 10.98
1 2 -5 180.51 11.69
1 2 -5 178.85 11.08
1 2 -5 184.36 10.88
1 2 -5 184.76 11.13
-1 2 5 176.88 11.41
-1 2 5 173.12 13.03
1 2 -5 182.57 11.51
1 2 -5 180.88 11.19
1 2 -5 185.46 11.12
1 2 -5 182.51 11.04
-1 2 5 172.63 11.53
-1 2 5 164.99 11.05
1 2 -5 184.21 10.98
1 2 -5 180.09 12.42
1 2 -5 175.81 13.03
1 2 -5 182.84 11.78
1 2 -5 182.65 11.51
1 2 -5 178.27 10.22
1 2 -5 181.73 10.22
1 2 -5 177.9 10.47
1 2 -5 178.6 10.49
1 2 -5 180.01 11.52
-1 2 5 172.38 10.4
1 2 -5 183.05 10.47
1 2 -5 182.67 11.93
1 2 -5 188.33 12.06
1 2 -5 183.68 10.46
1 2 -5 184.22 10.41
1 2 -5 180.59 10.44
1 2 -5 182.21 10.86
1 2 -5 181.26 10.8
1 2 -5 205.59 12.82
-1 2 5 183.42 13.48
1 2 -5 184.34 11.67
1 2 -5 178.61 11.47
1 2 -5 186.95 11.35
1 2 -5 186.21 11.26
-1 2 5 169.13 11.48
0 -2 5 55.48 3.99
0 -2 -5 59.28 3.79
0 -2 -5 59.24 4
0 -2 5 54.97 4.53
0 -2 5 53.82 4.22
0 -2 5 55.98 3.62
0 -2 5 54.31 4.61
0 -2 5 55.7 4.45
0 -2 -5 59.64 4.09
0 -2 -5 59.91 4.03
0 -2 5 56.24 4
0 -2 -5 57.43 3.55
0 -2 5 51.37 3.99
0 -2 5 53.99 4.16
0 -2 -5 55.54 4.57
0 -2 5 56.33 4.31
0 -2 5 54.01 3.99
0 2 -5 54.32 3.31
0 2 -5 50.48 3.42
0 2 -5 53.48 3.84
0 2 -5 52.29 3.39
0 2 -5 51.63 3.43
0 2 -5 50.73 3.09
0 2 5 49.86 3.41
0 2 -5 52.23 3.51
0 2 -5 51.92 3.13
0 2 5 48.5 3.44
0 2 -5 53.92 3.07
0 2 5 50.72 3.95
0 2 -5 54.04 3.49
0 2 -5 53.21 3.49
0 2 -5 49.56 3.27
0 2 -5 56.65 3.46
0 2 -5 51.72 3.06
0 2 -5 52.41 3.35
0 2 -5 52.34 3.28
0 2 -5 54.06 3.39
0 2 -5 54.48 3.61
0 2 -5 52.33 3.32
0 2 -5 49.46 3.25
0 2 -5 51.36 3.44
0 2 -5 53.7 3.36
0 2 -5 50.47 3.14
0 2 -5 53.92 3.33
0 2 -5 55.35 3.58
0 2 -5 50.58 3.71
0 2 -5 53.72 3.28
0 2 -5 48.83 3.31
0 2 -5 53.57 3.5
0 2 5 50.15 3.89
1 -2 5 214.32 15.6
-1 -2 -5 214.3 13.99
-1 -2 -5 214.12 14.4
1 -2 5 207.41 16.67
-1 -2 -5 208.55 14.53
1 -2 5 199.95 15.09
-1 -2 -5 215.28 12.81
1 -2 5 193.17 14.48
1 -2 5 215.98 16.13
-1 -2 -5 221.06 13.64
1 -2 5 213.62 16.38
-1 -2 -5 189.93 14.76
-1 2 -5 191.84 11.01
-1 2 -5 182.1 13.39
-1 2 -5 188.52 12.6
-1 2 -5 192.72 11.19
1 2 5 196.68 12.3
-1 2 -5 185.88 11.73
-1 2 -5 183.11 11.95
-1 2 -5 200.95 12
-1 2 -5 182.94 11.78
1 2 5 184.62 14.03
1 2 5 183.1 12.26
-1 2 -5 188.47 12.06
-1 2 -5 197.81 12.36
-1 2 -5 202.57 12.21
-1 2 -5 203.91 13.81
-1 2 -5 196 12.42
-1 2 -5 200.97 12.27
1 2 5 198.21 12.42
1 2 5 181.18 12.86
1 2 5 186.26 14.23
-1 2 -5 206.24 11.84
-1 2 -5 188.35 11.28
1 2 5 184.45 14.06
2 -2 5 10.89 0.98
2 -2 5 10.66 0.92
2 -2 5 10.64 0.93
2 -2 5 10.32 0.85
2 -2 5 11.08 1.01
-2 -2 -5 10.17 0.81
-2 -2 -5 10.36 0.83
-2 -2 -5 10.18 0.84
-2 -2 -5 10.94 0.76
-2 -2 -5 10.49 0.84
-2 -2 -5 10.34 0.78
2 -2 5 10.03 0.89
-2 2 -5 9.58 0.75
-2 2 -5 10.1 0.81
-2 2 -5 9.66 0.84
2 2 5 10.04 0.84
-2 2 -5 9.14 0.65
2 2 5 10.04 0.73
2 2 5 9.45 0.74
-2 2 -5 9.38 0.74
-2 2 -5 9.51 0.69
-2 2 -5 9.85 0.73
2 2 5 8.72 0.71
-2 2 -5 9.74 0.75
-2 2 -5 9.58 0.73
-2 2 -5 9.22 0.66
2 2 5 10.27 0.83
-2 2 -5 8.5 0.67
2 2 5 9.82 0.72
2 2 5 10.05 0.83
2 2 5 8.72 0.75
2 2 5 9.37 0.76
-2 2 -5 9.61 0.68
2 2 5 9.59 0.75
-2 2 -5 10.3 0.72
-2 2 -5 10 0.71
2 2 5 9.75 0.73
-2 2 -5 9.46 0.75
-3 -2 -5 5.6 0.54
-3 -2 -5 6.28 0.61
3 -2 5 7.26 0.67
3 -2 5 6.48 0.73
3 -2 5 6.88 0.72
-3 -2 -5 6.61 0.62
-3 -2 -5 6.93 0.62
-3 -2 -5 6.66 0.63
3 -2 5 6.59 0.67
3 -2 5 6.4 0.68
-3 -2 -5 6.96 0.57
3 -2 5 6.32 0.61
-3 2 -5 7.22 0.58
-3 2 -5 6.99 0.52
3 2 5 5.74 0.58
3 2 5 6.17 0.59
3 2 5 5.56 0.57
3 2 5 6.4 0.51
3 2 5 7.28 0.62
-3 2 -5 6.26 0.6
3 2 5 6.31 0.56
-3 2 -5 6.51 0.58
3 2 5 8.17 0.58
-3 2 -5 5.87 0.51
3 2 5 6.37 0.55
3 2 5 5.78 0.54
-3 2 -5 6.2 0.57
-3 2 -5 6.67 0.53
-3 2 -5 6.1 0.56
3 2 5 6.3 0.53
-3 2 -5 6.19 0.64
-3 2 -5 6.9 0.54
-3 2 -5 7.53 0.57
3 2 5 6.92 0.61
-4 -2 -5 5.11 0.52
4 -2 5 3.69 0.47
-4 -2 -5 4.48 0.5
-4 -2 -5 4.43 0.53
-4 -2 -5 3.4 0.46
4 -2 5 3.64 0.51
4 -2 5 4.34 0.5
-4 -2 -5 4.33 0.43
4 -2 5 4.14 0.51
4 -2 5 4.62 0.56
-4 -2 -5 4.66 0.51
4 -2 5 4.02 0.55
4 2 5 3.82 0.48
-4 2 -5 3.99 0.39
-4 2 -5 3.75 0.43
-4 2 -5 4.46 0.42
-4 2 -5 3.98 0.46
-4 2 -5 4.22 0.51
4 2 5 5.57 0.49
-4 2 -5 3.9 0.46
4 2 5 4.18 0.43
4 2 5 4.33 0.44
-4 2 -5 4.65 0.47
4 2 5 3.8 0.48
4 2 5 3.93 0.45
4 2 5 4.21 0.41
-4 2 -5 5.48 0.51
-4 2 -5 4.18 0.49
4 2 5 4.3 0.42
4 2 5 3.25 0.5
-5 -2 -5 106.17 7.79
5 -2 5 109.47 8.69
5 -2 5 107.5 9.13
5 -2 5 99.71 8.96
-5 -2 -5 108.07 7.89
-5 -2 -5 106.07 8.26
-5 -2 -5 89.53 8.08
-5 -2 -5 93.75 7.09
5 -2 5 91.73 8.21
5 -2 5 96.08 9.26
-5 -2 -5 103.47 7.79
-5 2 -5 120.19 7.77
5 2 5 114.64 7.15
5 2 5 115.16 6.84
5 2 5 111.33 7.26
-5 2 -5 118.59 6.8
-5 2 -5 114.47 6.7
5 2 5 118.62 7.06
-5 2 -5 113.41 7.51
5 2 5 115.78 6.82
5 2 5 110.92 7.79
5 2 5 114.69 6.96
5 2 5 110.23 7.15
-5 2 -5 118.36 6.95
-5 2 -5 102.87 6.67
5 2 5 97.64 7.26
-5 2 -5 119.49 6.62
6 2 5 1.53 0.34
-6 2 -5 1.44 0.3
-6 2 -5 1.63 0.34
-6 2 -5 0.93 0.24
6 2 5 1.52 0.37
-6 2 -5 1.59 0.36
-6 2 -5 1.33 0.26
6 2 5 1.35 0.32
-6 2 -5 1.71 0.3
-6 2 -5 1.71 0.4
6 2 5 1.48 0.3
6 2 5 1.56 0.28
6 2 5 1.33 0.25
6 2 5 1.18 0.25
7 -2 5 49.69 3.27
7 -2 5 45.45 3.24
-7 2 -5 52.7 3.65
-7 2 -5 46.77 3.22
7 2 5 51.34 3.24
-7 2 -5 47.3 3.05
7 2 5 44.36 3.36
7 2 5 48.11 3.26
7 2 5 51.68 3.39
7 2 5 54.61 3.35
-7 2 -5 50.68 3.51
-7 2 -5 51.57 3.17
7 2 5 52.61 3.18
8 -2 5 1.53 0.21
8 -2 5 1.4 0.18
8 2 5 1.26 0.19
-8 2 -5 1.52 0.23
-8 2 -5 0.91 0.2
8 2 5 1.45 0.21
7 -3 -5 9.8 0.65
7 -3 -5 10.18 0.68
7 3 -5 10.36 0.74
-7 3 5 10.11 0.69
7 3 -5 9.33 0.72
-7 3 5 8.7 0.67
6 -3 -5 4.68 0.42
-6 3 5 6.04 0.49
6 3 -5 4.64 0.45
6 3 -5 5.4 0.52
-6 3 5 4.59 0.51
6 3 -5 4.92 0.44
6 3 -5 5.53 0.5
6 3 -5 5.02 0.47
-6 3 5 4.02 0.4
-6 3 5 5.8 0.53
-6 3 5 6.06 0.52
6 3 -5 5.52 0.44
-6 3 5 5.34 0.48
6 3 -5 4.9 0.44
6 3 -5 5.52 0.51
6 3 -5 5.51 0.52
5 3 -5 52.3 3.3
-5 3 5 53.18 3.36
-5 3 5 53.13 3.01
5 3 -5 50.32 3.43
-5 3 5 48.73 3.58
5 3 -5 43.3 3.23
-5 3 5 52.29 3.39
5 3 -5 51.28 3.23
5 3 -5 52.53 3.47
5 3 -5 49.4 3.41
5 3 -5 51.94 3.4
5 3 -5 46.34 3.21
-5 3 5 53.88 3.25
5 3 -5 50.69 3.23
5 3 -5 49.02 3.38
5 3 -5 47.06 3.69
5 3 -5 47.17 3.2
5 3 -5 52.95 3.35
-5 3 5 53.08 3.3
5 3 -5 51.77 3.51
-4 3 5 2.81 0.46
-4 3 5 3.54 0.43
4 3 -5 3.65 0.4
4 3 -5 3.26 0.41
4 3 -5 3.33 0.37
-4 3 5 3.84 0.4
4 3 -5 3.72 0.48
4 3 -5 3.62 0.4
4 3 -5 2.8 0.43
4 3 -5 3.5 0.36
4 3 -5 3.16 0.41
4 3 -5 2.88 0.51
4 3 -5 2.5 0.45
4 3 -5 3.29 0.41
4 3 -5 3.42 0.36
4 3 -5 3.18 0.41
4 3 -5 3.42 0.39
4 3 -5 3.89 0.48
-4 3 5 3.95 0.54
4 3 -5 3.29 0.52
-4 3 5 4.27 0.59
4 3 -5 3.22 0.46
-4 3 5 3.2 0.51
4 3 -5 2.48 0.44
-4 3 5 3.27 0.51
3 -3 -5 155.35 12.2
3 -3 -5 146.66 11.23
3 -3 -5 140.15 13.71
3 -3 -5 156.2 11.99
3 -3 -5 143.54 11.84
3 -3 -5 145.17 10.56
3 3 -5 154.38 9.9
-3 3 5 134.08 10.98
-3 3 5 156.66 9.93
3 3 -5 160.32 9.6
3 3 -5 158.55 10.39
-3 3 5 154.71 9.26
3 3 -5 161.08 9.09
3 3 -5 163.82 9.8
3 3 -5 172.27 11.7
3 3 -5 176.57 11.55
3 3 -5 168.69 10.11
3 3 -5 165.76 9.79
-3 3 5 155.8 10.22
-3 3 5 156.88 10.26
3 3 -5 170.53 10
3 3 -5 164.74 10.43
3 3 -5 168.88 9.3
3 3 -5 174.32 10.75
3 3 -5 174.85 10.22
3 3 -5 168.87 10.47
3 3 -5 174.06 10.58
3 3 -5 173.44 10.4
-3 3 5 149.84 9.82
-3 3 5 153.03 9.8
3 3 -5 163.51 9.21
3 3 -5 174.06 10.1
3 3 -5 170.24 10.22
3 3 -5 164.06 11.55
-3 3 5 157.54 10.24
3 3 -5 173.88 10.65
3 3 -5 160.69 9.25
3 3 -5 160.5 10.11
2 -3 -5 16.03 1.47
2 -3 -5 16.85 1.32
2 -3 -5 16.78 1.51
2 -3 -5 15.89 1.66
2 -3 -5 16.3 1.48
2 -3 -5 16.57 1.4
2 3 -5 16.58 1.18
2 3 -5 20.26 1.29
2 3 -5 18.17 1.17
2 3 -5 17.11 1.23
-2 3 5 15.23 1.23
2 3 -5 19.25 1.15
-2 3 5 17.17 1.25
2 3 -5 18.02 1.25
2 3 -5 17.29 1.33
2 3 -5 18.29 1.22
-2 3 5 16.18 1.27
2 3 -5 18.07 1.24
2 3 -5 18.56 1.28
2 3 -5 16.98 1.41
-2 3 5 15.96 1.4
2 3 -5 17.97 1.15
2 3 -5 18.36 1.23
2 3 -5 18.6 1.37
2 3 -5 17.75 1.16
-2 3 5 15.35 1.23
2 3 -5 17.63 1.17
2 3 -5 17.76 1.34
2 3 -5 17.27 1.29
2 3 -5 18.17 1.17
2 3 -5 18.66 1.19
-2 3 5 16.04 1.17
2 3 -5 17.87 1.17
2 3 -5 17.04 1.2
2 3 -5 18.36 1.24
2 3 -5 18.6 1.26
2 3 -5 18.16 1.3
-2 3 5 15.94 1.23
2 3 -5 17.79 1.27
2 3 -5 18.61 1.3
2 3 -5 16.92 1.24
-2 3 5 15.69 1.29
2 3 -5 16.75 1.42
-2 3 5 16.13 1.27
2 3 -5 17.67 1.22
2 3 -5 18.3 1.27
2 3 -5 18.56 1.43
2 3 -5 18.05 1.31
2 3 -5 18.53 1.25
2 3 -5 18.53 1.22
2 3 -5 17.8 1.25
2 3 -5 18.49 1.33
2 3 -5 17.76 1.41
2 3 -5 17.66 1.36
2 3 -5 19.42 1.24
1 -3 -5 23.03 2.07
1 -3 -5 24.61 2.06
1 -3 -5 26.46 1.84
1 -3 -5 25.87 2.06
1 -3 -5 24.68 1.94
1 3 -5 25.88 1.58
1 3 -5 25.66 1.8
1 3 -5 27.83 1.6
1 3 -5 27.82 1.64
1 3 -5 26.14 1.68
1 3 -5 26.69 1.62
1 3 -5 26.48 1.62
1 3 -5 26.44 1.62
-1 3 5 23.87 1.6
-1 3 5 23.1 1.73
1 3 -5 27.34 1.72
1 3 -5 26.12 1.74
-1 3 5 22.23 1.98
-1 3 5 23.76 1.76
1 3 -5 27.25 1.77
1 3 -5 26.51 1.78
1 3 -5 26.95 1.76
1 3 -5 26.38 1.71
1 3 -5 26.5 1.75
1 3 -5 25.65 1.96
1 3 -5 26.57 1.86
-1 3 5 22.82 1.68
1 3 -5 26.08 1.72
-1 3 5 23.35 1.69
-1 3 5 23.94 1.77
1 3 -5 27.02 1.63
1 3 -5 25.8 1.68
1 3 -5 25.7 1.72
1 3 -5 24.92 1.98
1 3 -5 24.72 1.58
1 3 -5 26.47 1.62
1 3 -5 24.77 1.72
1 3 -5 23.72 1.8
1 3 -5 27.63 1.71
-1 3 5 25.69 1.71
1 3 -5 26.29 1.68
1 3 -5 25.12 1.73
1 3 -5 26.36 1.99
1 3 -5 25.25 1.76
1 3 -5 23.52 1.96
1 3 -5 26.11 1.69
1 3 -5 25.07 1.9
1 3 -5 26.52 1.84
1 3 -5 26.04 1.81
1 3 -5 26.02 1.81
1 3 -5 27.58 1.69
1 3 -5 26.89 1.73
-1 3 5 22.81 1.96
1 3 -5 25.62 1.68
-1 3 5 22.9 1.73
0 -3 -5 16.09 1.29
0 -3 5 12.52 1.52
0 -3 -5 15.5 1.33
0 -3 -5 14.91 1.34
0 -3 -5 17.01 1.23
0 -3 5 13.36 1.35
0 -3 5 14.23 1.27
0 -3 -5 17.21 1.37
0 -3 5 14.3 1.33
0 -3 5 12.91 1.33
0 3 -5 17.86 1.13
0 3 5 15.5 1.1
0 3 -5 17.2 1.06
0 3 5 15.34 1.1
0 3 5 14.09 1.28
0 3 -5 16.07 1.28
0 3 -5 17.94 1.09
0 3 -5 14.86 1.12
0 3 -5 16.01 1.13
0 3 5 13.47 1.1
0 3 -5 16.62 1.05
0 3 -5 17.08 1.14
0 3 -5 17.47 1.17
0 3 5 15.96 1.16
0 3 -5 16.74 1.18
0 3 -5 16.87 1.11
0 3 -5 16.69 1.12
0 3 -5 16.46 1.17
0 3 -5 16.12 1.15
0 3 5 14.94 1.17
0 3 -5 15.98 1.19
0 3 -5 16.88 1.08
0 3 -5 16.71 1.13
0 3 5 16.88 1.07
0 3 -5 16.76 1.15
0 3 -5 15.77 1.18
0 3 -5 15.31 1.28
0 3 -5 16.95 1.08
0 3 5 16.09 1.13
0 3 -5 16.27 1.11
0 3 -5 16.29 1.16
0 3 5 16.24 1.17
0 3 5 16.53 1.16
0 3 -5 16.63 1.27
0 3 -5 17 1.14
0 3 -5 16.79 1.33
0 3 -5 16.05 1.14
0 3 5 15.54 1.32
0 3 -5 17.74 1.08
0 3 -5 17.08 1.09
0 3 -5 15.84 1.3
0 3 5 15.53 1.31
-1 -3 -5 67.67 4.28
-1 -3 -5 62.79 4.67
-1 -3 -5 63.64 4.73
1 -3 5 59.64 4.56
-1 -3 -5 58.85 4.52
1 -3 5 58.15 4.85
1 -3 5 56.77 5.52
-1 -3 -5 66.66 4.81
1 -3 5 56.77 4.92
-1 3 -5 62.96 3.71
1 3 5 68.6 4.69
-1 3 -5 58.07 4.63
-1 3 -5 65.9 3.94
-1 3 -5 69 3.96
-1 3 -5 67.4 3.9
-1 3 -5 61.35 3.75
1 3 5 54.21 4.05
-1 3 -5 68.21 4.12
-1 3 -5 62.78 4
-1 3 -5 57.04 4.22
-1 3 -5 69.71 4.02
-1 3 -5 66.19 3.77
-1 3 -5 68.64 4.06
-1 3 -5 63.49 4.63
-1 3 -5 66.74 3.95
-1 3 -5 59.89 4.68
-1 3 -5 64.99 4.1
-1 3 -5 63.68 3.95
1 3 5 54.28 4.16
-1 3 -5 66.97 3.76
1 3 5 60.33 4.67
1 3 5 67.96 4.15
-1 3 -5 67.95 4.49
-1 3 -5 64.93 4.06
1 3 5 67.51 4.11
1 3 5 65.79 4.75
1 3 5 56.42 3.89
1 3 5 63.83 3.72
1 3 5 64.3 4.28
1 3 5 62.87 4.09
1 3 5 64.97 3.96
-1 3 -5 65.54 3.67
-1 3 -5 69.28 4.16
-1 3 -5 70.57 4.66
2 -3 5 2.63 0.46
-2 -3 -5 3.23 0.49
2 -3 5 3.25 0.52
2 -3 5 2.55 0.5
-2 -3 -5 2.92 0.48
-2 -3 -5 2.32 0.43
2 -3 5 2.57 0.44
2 -3 5 2.77 0.53
-2 -3 -5 2.54 0.46
-2 -3 -5 2.38 0.37
2 3 5 2.75 0.41
-2 3 -5 3.44 0.47
-2 3 -5 2.65 0.32
2 3 5 3.02 0.38
2 3 5 3.26 0.35
2 3 5 2.96 0.34
2 3 5 3.06 0.4
-2 3 -5 2.64 0.32
-2 3 -5 3.61 0.38
-2 3 -5 2.51 0.31
-2 3 -5 2.67 0.31
2 3 5 2.69 0.38
-2 3 -5 4.31 0.58
2 3 5 2.68 0.31
-2 3 -5 3.3 0.41
2 3 5 3.43 0.42
2 3 5 2.72 0.41
2 3 5 3 0.33
-2 3 -5 2.88 0.36
-2 3 -5 3.19 0.39
-2 3 -5 3.19 0.38
-2 3 -5 3.14 0.53
2 3 5 2.7 0.34
-2 3 -5 2.98 0.36
2 3 5 2.94 0.41
-2 3 -5 2.9 0.42
-2 3 -5 3.9 0.52
-2 3 -5 2.91 0.45
-3 3 -5 136.16 8.13
-3 3 -5 130.69 8.48
3 3 5 135.22 8.45
3 3 5 114.05 8.71
3 3 5 125.12 8.48
-3 3 -5 142.15 9.26
3 3 5 147.62 8.89
3 3 5 133.22 8.42
3 3 5 147.64 9.69
3 3 5 121.79 8.36
-3 3 -5 134.76 8.13
-3 3 -5 128.6 8.24
3 3 5 123.68 8.55
-3 3 -5 134.68 8.56
-3 3 -5 124.7 8.09
-3 3 -5 133.99 8.36
3 3 5 146.49 9.79
3 3 5 129.24 8.7
-3 3 -5 139.34 9.57
-3 3 -5 140.97 8.27
3 3 5 147.34 9.65
-4 3 -5 10.7 0.8
4 3 5 11.56 0.94
4 3 5 8.95 0.9
4 3 5 9.81 0.87
4 3 5 11.15 0.84
4 3 5 10.55 0.87
4 3 5 9.98 0.89
-4 3 -5 10.46 0.96
4 3 5 11.29 0.94
-4 3 -5 11.18 0.87
-4 3 -5 10.58 1.03
-4 3 -5 10.65 0.83
-4 3 -5 11.44 0.92
4 3 5 10.83 0.89
4 3 5 10.84 0.9
-4 3 -5 9.98 0.84
-4 3 -5 11.2 0.88
5 3 5 12.57 0.97
5 3 5 12.05 1.02
5 3 5 12.35 0.92
-5 3 -5 13.28 0.92
5 3 5 12.21 0.96
5 3 5 10.62 0.97
-5 3 -5 13.35 0.98
-5 3 -5 13.68 1.08
5 3 5 12.24 0.96
-5 3 -5 12.71 0.96
-5 3 -5 12.29 0.91
-5 3 -5 13.13 1.12
5 3 5 10.81 0.99
-5 3 -5 9.91 0.85
5 3 5 14.19 0.96
6 3 5 3.59 0.35
-6 3 -5 3.85 0.43
6 3 5 3.42 0.32
-6 3 -5 3.44 0.34
-6 3 -5 3.64 0.37
6 3 5 3.47 0.36
-6 3 -5 3.47 0.43
-6 3 -5 3.26 0.36
6 3 5 2.66 0.36
6 3 5 3.33 0.38
6 3 5 2.46 0.31
6 3 5 3.24 0.34
4 4 -5 9.54 0.76
4 4 -5 9.9 0.75
4 4 -5 10.58 0.84
4 4 -5 11.01 0.79
-4 4 5 11.75 0.83
-4 4 5 9.86 0.78
-4 4 5 10.54 0.73
-4 4 5 11.35 0.8
4 4 -5 10.61 0.8
4 4 -5 10.87 0.76
-4 4 5 9.95 0.74
-3 4 5 0.37 0.21
3 4 -5 0.75 0.19
3 4 -5 0.39 0.19
-3 4 5 0.41 0.17
-3 4 5 0.39 0.18
3 4 -5 0.62 0.18
3 4 -5 0.55 0.2
-3 4 5 0.52 0.23
3 4 -5 0.54 0.18
3 4 -5 0.45 0.2
-3 4 5 0.65 0.19
3 4 -5 0.57 0.23
-3 4 5 0.57 0.23
3 4 -5 1.02 0.27
3 4 -5 0.43 0.17
-2 4 5 3.42 0.45
2 4 -5 4.12 0.41
2 4 -5 5.06 0.44
2 4 -5 3.95 0.42
2 4 -5 4.78 0.45
2 4 -5 4.39 0.44
-2 4 5 3.96 0.42
-2 4 5 4.29 0.45
2 4 -5 4.32 0.47
2 4 -5 4.04 0.39
-2 4 5 4.2 0.43
2 4 -5 4.27 0.47
2 4 -5 4.67 0.44
2 4 -5 3.76 0.47
2 4 -5 3.98 0.44
-2 4 5 3.52 0.41
-2 4 5 4.11 0.42
-2 4 5 4 0.43
1 4 -5 53.45 3.06
-1 4 5 48.93 3.2
1 4 -5 50.36 3.42
1 4 -5 45.04 3.07
-1 4 5 49.18 3.17
1 4 -5 49.63 3.28
1 4 -5 46.52 3.13
1 4 -5 51.1 3.18
1 4 -5 44.96 3.62
1 4 -5 49.46 3.18
1 4 -5 55.65 3.62
-1 4 5 50.99 3.21
-1 4 5 42.79 3.58
1 4 -5 46.67 3.57
-1 4 5 42.42 3.04
1 4 -5 47.02 3.13
1 4 -5 55.95 3.21
1 4 -5 48.42 2.87
-1 4 5 42.82 3.06
-1 4 5 43.56 3.02
-1 4 5 49.92 2.9
1 4 -5 49.45 3.03
0 4 5 3.81 0.43
0 4 -5 4.55 0.43
0 4 -5 4.46 0.49
0 4 -5 4.43 0.44
0 4 -5 4.7 0.4
0 4 -5 4.16 0.44
0 4 -5 3.18 0.46
0 4 5 4.4 0.5
0 4 5 4.51 0.42
0 4 5 4.44 0.5
0 4 5 4.03 0.43
0 4 -5 4.66 0.54
0 4 5 4.34 0.5
0 4 -5 4.06 0.43
0 4 -5 4.04 0.44
0 4 -5 4.45 0.46
0 4 -5 4.5 0.44
0 4 -5 5.07 0.53
0 4 5 4.96 0.47
0 4 5 4.13 0.44
0 4 -5 4.33 0.46
0 4 -5 3.74 0.52
0 4 -5 4.73 0.49
0 4 5 3.82 0.42
-1 4 -5 23.08 1.89
-1 4 -5 25.43 1.6
-1 4 -5 25.19 1.63
1 4 5 25.7 1.9
1 4 5 26.32 1.91
-1 4 -5 25.41 1.61
1 4 5 24.56 1.92
-1 4 -5 26.46 1.67
-1 4 -5 25.49 1.5
-1 4 -5 23.83 1.58
1 4 5 20.12 1.61
-1 4 -5 21.51 1.84
-1 4 -5 22.99 1.69
1 4 5 25.56 1.68
1 4 5 21.48 1.71
1 4 5 20.66 1.62
-1 4 -5 23.53 1.66
-1 4 -5 24.37 1.62
-1 4 -5 22.79 1.63
-1 4 -5 26.17 1.84
1 4 5 23.62 1.66
-1 4 -5 23.27 1.62
1 4 5 26.17 1.61
1 4 5 25.47 1.49
-2 4 -5 17.55 1.21
2 4 5 18.03 1.26
2 4 5 15.94 1.44
2 4 5 15.92 1.27
2 4 5 18.23 1.24
-2 4 -5 16.71 1.27
-2 4 -5 16.81 1.17
2 4 5 19.33 1.33
-2 4 -5 16.75 1.1
-2 4 -5 18.96 1.4
2 4 5 19.82 1.44
-2 4 -5 19.03 1.24
-2 4 -5 14.44 1.21
2 4 5 18.09 1.19
2 4 5 18.29 1.42
-2 4 -5 17.23 1.22
-2 4 -5 15.82 1.19
-2 4 -5 18.32 1.27
-2 4 -5 17.06 1.45
2 4 5 17.73 1.24
-3 4 -5 0.61 0.25
-3 4 -5 0.74 0.19
3 4 5 0.7 0.21
3 4 5 0.79 0.21
3 4 5 0.71 0.18
3 4 5 0.88 0.23
-3 4 -5 0.98 0.23
3 4 5 0.53 0.21
3 4 5 0.21 0.19
-3 4 -5 0.79 0.2
3 4 5 0.69 0.22
-3 4 -5 0.62 0.21
3 4 5 0.57 0.19
-3 4 -5 0.77 0.18
-3 4 -5 0.61 0.26
-3 4 -5 0.84 0.28
-3 4 -5 0.61 0.24
4 4 5 2.17 0.27
4 4 5 1.71 0.3
-4 4 -5 1.57 0.23
-4 4 -5 1.45 0.31
4 4 5 2.36 0.28
-4 4 -5 2.5 0.29
4 4 5 1.99 0.31
-4 4 -5 1.78 0.26
4 4 5 1.74 0.28
4 4 5 1.24 0.27
4 4 5 2.12 0.28
-4 4 -5 2.55 0.33
-4 4 -5 1.52 0.27
9 0 -6 0.02 0.1
-9 0 6 0.01 0.11
-9 0 6 0.22 0.13
9 0 -6 0.04 0.09
8 0 -6 58.16 3.78
-8 0 6 50.42 3.42
8 0 -6 57.91 3.45
8 0 -6 61.17 3.68
8 0 -6 59.13 3.68
8 0 -6 49.29 3.45
7 0 -6 0.23 0.15
7 0 -6 0.28 0.16
7 0 -6 0.05 0.13
7 0 -6 0.19 0.12
7 0 -6 0.22 0.15
7 0 -6 0.21 0.15
7 0 -6 -0.11 0.1
-6 0 6 9.45 0.87
6 0 -6 9.08 0.72
6 0 -6 10.38 0.77
-6 0 6 8.4 0.82
6 0 -6 9.68 0.76
6 0 -6 9.18 0.94
6 0 -6 10.79 0.78
6 0 -6 9.23 0.72
-6 0 6 8.37 0.85
6 0 -6 10.8 0.8
6 0 -6 10.42 0.74
6 0 -6 8.96 0.97
-6 0 6 10.5 0.91
-6 0 6 10.28 0.86
-6 0 6 9.39 0.91
5 0 -6 0.14 0.11
5 0 -6 -0.03 0.13
5 0 -6 0.01 0.08
-5 0 6 0.03 0.11
-5 0 6 0 0.09
5 0 -6 0.03 0.09
-5 0 6 0.02 0.09
5 0 -6 0.01 0.11
-5 0 6 0.07 0.1
5 0 -6 0.08 0.1
-5 0 6 0 0.09
-5 0 6 0.07 0.1
-5 0 6 0.07 0.1
5 0 -6 0.09 0.11
5 0 -6 0.24 0.14
5 0 -6 0.37 0.15
5 0 -6 0.06 0.11
5 0 -6 0.03 0.1
4 0 -6 159.18 11.71
-4 0 6 208.81 13.85
4 0 -6 203.21 15.28
-4 0 6 190.45 13.63
-4 0 6 183.67 13.62
4 0 -6 163.96 11.15
4 0 -6 161.84 11.37
-4 0 6 195.33 13.57
4 0 -6 159.65 11.01
-4 0 6 177.98 12.98
4 0 -6 207.73 14.57
-4 0 6 190.15 13.15
-4 0 6 203.56 13.02
-4 0 6 205.89 13.6
4 0 -6 178.89 15.51
4 0 -6 157.42 11.68
-3 0 6 -0.06 0.06
-3 0 6 -0.11 0.06
3 0 -6 -0.03 0.08
-3 0 6 -0.1 0.06
3 0 -6 -0.02 0.08
-3 0 6 -0.06 0.06
3 0 -6 -0.09 0.05
-3 0 6 -0.11 0.05
-3 0 6 -0.1 0.07
3 0 -6 -0.08 0.06
3 0 -6 -0.1 0.04
-3 0 6 -0.12 0.05
-2 0 6 291.65 21.03
2 0 -6 267.46 21.39
-2 0 6 281.81 20.14
2 0 -6 295.24 23.67
-2 0 6 262.9 20.37
-2 0 6 302.16 21.42
2 0 -6 308.53 22.55
-2 0 6 299.09 21.01
2 0 -6 303.85 24.08
-2 0 6 297.36 21.13
-2 0 6 283.02 21.13
2 0 -6 251.09 21
-1 0 6 -0.15 0.04
-1 0 6 0.05 0.07
-1 0 6 0.13 0.08
1 0 -6 0.03 0.08
1 0 -6 -0.17 0.04
1 0 -6 -0.1 0.05
-1 0 6 -0.14 0.03
-1 0 6 -0.01 0.06
1 0 -6 -0.16 0.04
-1 0 6 -0.17 0.04
-1 0 6 -0.02 0.06
1 0 -6 -0.1 0.05
1 0 -6 -0.15 0.05
0 0 6 17.59 1.38
0 0 6 17.58 1.33
0 0 6 16.19 1.33
0 0 6 18.08 1.34
0 0 -6 19.1 1.34
0 0 -6 16.78 1.25
0 0 -6 15.21 1.26
0 0 6 17.39 1.41
0 0 -6 17.9 1.36
0 0 6 17.21 1.21
0 0 -6 17.16 1.17
0 0 6 18.98 1.32
0 0 -6 15.79 1.32
0 0 6 19.52 1.33
0 0 6 17.48 1.34
0 0 -6 15.1 1.26
-1 0 -6 -0.12 0.05
-1 0 -6 -0.1 0.08
1 0 6 0.11 0.08
-1 0 -6 -0.03 0.06
1 0 6 -0.15 0.04
1 0 6 0.09 0.08
1 0 6 -0.1 0.04
1 0 6 0.2 0.09
-1 0 -6 -0.05 0.06
-1 0 -6 -0.09 0.07
-1 0 -6 -0.11 0.06
-1 0 -6 -0.08 0.04
1 0 6 -0.12 0.05
-2 0 -6 750.89 44.7
-2 0 -6 631.99 51.69
2 0 6 662.67 57.14
-2 0 -6 701.25 49.29
-2 0 -6 719.91 48.8
-2 0 -6 718.16 50.28
2 0 6 696.89 56.38
-2 0 -6 711.29 47.62
2 0 6 677.65 54.43
-2 0 -6 664.63 48.68
2 0 6 701.2 51.01
3 0 6 -0.03 0.07
3 0 6 0.05 0.1
-3 0 -6 -0.11 0.09
3 0 6 -0.04 0.05
3 0 6 -0.07 0.09
-3 0 -6 -0.16 0.07
-3 0 -6 -0.09 0.08
3 0 6 0.32 0.12
-3 0 -6 -0.13 0.04
-3 0 -6 -0.04 0.09
3 0 6 -0.09 0.06
-3 0 -6 -0.01 0.07
3 0 6 -0.02 0.08
3 0 6 -0.14 0.07
-3 0 -6 -0.14 0.09
-3 0 -6 -0.06 0.08
-4 0 -6 156.51 11.43
4 0 6 169.44 11.92
4 0 6 153.86 13.21
4 0 6 155.47 12.63
-4 0 -6 170.06 11.49
4 0 6 164.33 12.41
-4 0 -6 166.85 11.8
-4 0 -6 163.04 10.5
4 0 6 145.68 12.74
-4 0 -6 170.06 11.6
-5 0 -6 -0.07 0.1
5 0 6 0.31 0.17
5 0 6 0.41 0.19
5 0 6 0.2 0.15
-5 0 -6 0.11 0.13
5 0 6 0.13 0.11
5 0 6 0.07 0.13
-5 0 -6 0.14 0.15
-5 0 -6 0.04 0.13
5 0 6 -0.03 0.1
-5 0 -6 0.04 0.14
6 0 6 0.48 0.17
6 0 6 0.38 0.15
-6 0 -6 0.48 0.23
6 0 6 0.36 0.17
6 0 6 0.34 0.15
6 0 6 1.38 0.28
-6 0 -6 0.42 0.18
6 0 6 0.52 0.25
6 0 6 0.79 0.19
-6 0 -6 0.39 0.22
6 0 6 0.88 0.28
-6 0 -6 0.55 0.18
-6 0 -6 0.47 0.23
6 0 6 0.66 0.22
6 0 6 0.52 0.21
7 0 6 0.3 0.17
-7 0 -6 0.21 0.16
-7 0 -6 0.26 0.15
7 0 6 0.24 0.14
7 0 6 0.28 0.16
7 0 6 0.25 0.13
7 0 6 0.02 0.11
-7 0 -6 0.23 0.16
-7 0 -6 0.17 0.2
-7 0 -6 0.51 0.19
-7 0 -6 0.15 0.13
7 0 6 0.13 0.12
8 0 6 54.79 3.68
8 0 6 48.92 3.53
-8 0 -6 55.25 3.38
8 0 6 59.06 3.61
-8 0 -6 56.38 3.33
8 0 6 57.95 3.67
8 0 6 53.62 3.43
-8 0 -6 59.14 3.44
-8 0 -6 54.29 3.91
-8 0 -6 47.1 3.76
8 -1 -6 22.02 1.43
8 -1 -6 22.02 1.43
8 -1 -6 18.6 1.44
8 -1 -6 19.36 1.34
8 -1 -6 21.83 1.34
8 1 -6 21.24 1.45
8 1 -6 20.26 1.45
-8 1 6 21.31 1.44
-8 1 6 18.26 1.54
-8 1 6 19.03 1.33
8 1 -6 21.79 1.45
8 1 -6 19.76 1.34
-8 1 6 21.17 1.38
-8 1 6 21.14 1.54
8 1 -6 22.3 1.49
7 -1 -6 0.79 0.21
7 -1 -6 1.01 0.24
7 -1 -6 0.71 0.18
7 -1 -6 0.88 0.24
7 -1 -6 0.85 0.23
7 -1 -6 0.73 0.2
7 1 -6 0.83 0.25
7 1 -6 0.5 0.2
-7 1 6 1.28 0.33
7 1 -6 0.57 0.18
-7 1 6 0.77 0.22
-7 1 6 0.75 0.22
-7 1 6 0.7 0.23
-7 1 6 0.81 0.23
7 1 -6 0.44 0.19
-7 1 6 0.71 0.2
7 1 -6 0.67 0.23
7 1 -6 0.98 0.24
7 1 -6 0.65 0.2
6 -1 -6 166.98 11.06
-6 -1 6 156.48 12.47
-6 -1 6 165.63 12.66
6 -1 -6 167.34 14
-6 -1 6 165.14 12.42
6 -1 -6 145.34 14.19
-6 -1 6 167.03 12.44
6 -1 -6 183.8 10.23
6 -1 -6 185.2 10.75
-6 -1 6 156.46 11.89
6 -1 -6 162.23 13.33
-6 -1 6 148.72 12.47
6 -1 -6 183.42 10.11
6 -1 -6 180.02 10.72
6 -1 -6 155.11 10.4
6 1 -6 171.92 10.25
6 1 -6 175.2 10.14
6 1 -6 178.73 10.79
6 1 -6 168.78 10.83
-6 1 6 173.48 12.72
6 1 -6 173.3 10.76
-6 1 6 143.08 12.04
-6 1 6 170.55 11.96
-6 1 6 153.98 12.44
6 1 -6 173.5 11.11
6 1 -6 184.2 11.02
-6 1 6 173.15 11.78
6 1 -6 160.53 10.43
-6 1 6 171.28 10.58
-5 -1 6 2.2 0.37
5 -1 -6 1.71 0.34
5 -1 -6 2.22 0.32
5 -1 -6 2.01 0.38
5 -1 -6 1.33 0.29
-5 -1 6 1.7 0.27
-5 -1 6 2.05 0.3
5 -1 -6 2.26 0.4
-5 -1 6 2.22 0.39
-5 -1 6 2.09 0.37
-5 -1 6 2.12 0.31
5 1 -6 1.66 0.29
5 1 -6 1.52 0.3
-5 1 6 2.08 0.34
5 1 -6 1.38 0.25
5 1 -6 1.61 0.25
5 1 -6 1.79 0.3
5 1 -6 2.02 0.35
5 1 -6 1.73 0.25
5 1 -6 1.76 0.29
-5 1 6 1.86 0.34
-5 1 6 1.56 0.32
5 1 -6 2.12 0.33
5 1 -6 2.36 0.35
-5 1 6 2.16 0.38
-5 1 6 2.06 0.37
-4 -1 6 32.05 2.35
-4 -1 6 28.9 2.23
-4 -1 6 31.44 2.24
-4 -1 6 32.21 2.37
-4 -1 6 31.96 2.39
4 -1 -6 33.04 2.66
-4 -1 6 33.97 2.37
4 -1 -6 33.81 2.71
4 -1 -6 29.89 2.59
4 -1 -6 31.27 2.37
4 -1 -6 34.12 2.53
4 1 -6 29.67 2.07
-4 1 6 32.85 2.45
4 1 -6 26.89 1.95
4 1 -6 27.24 1.92
4 1 -6 27.67 2.02
-4 1 6 31.48 2.39
4 1 -6 28.03 2.09
4 1 -6 27.67 1.93
4 1 -6 28.72 2.04
4 1 -6 28.89 2.03
4 1 -6 27.2 2
-4 1 6 30.72 2.37
4 1 -6 24.99 1.8
-4 1 6 34.8 2.3
4 1 -6 25.38 1.77
-4 1 6 33.62 2.3
3 -1 -6 78.82 6.26
3 -1 -6 79.74 6.15
3 -1 -6 78.87 6.05
3 -1 -6 72.43 5.44
-3 -1 6 73.99 5.55
-3 -1 6 80.85 5.5
-3 -1 6 74.85 5.46
3 -1 -6 76.36 5.85
3 -1 -6 63.89 5.08
-3 -1 6 68.73 5.21
3 -1 -6 72.25 5.55
-3 -1 6 64.65 5.25
-3 -1 6 81.21 5.47
-3 1 6 71.74 5.49
-3 1 6 75.4 5.6
-3 1 6 66.75 5.47
-3 1 6 63.03 5.48
-3 1 6 75.56 5.26
-2 -1 6 99.72 6.97
-2 -1 6 97.03 6.96
2 -1 -6 102.37 8
2 -1 -6 85.77 6.87
2 -1 -6 88.77 6.52
-2 -1 6 89.53 6.66
2 -1 -6 99.08 7.85
-2 -1 6 82.57 6.72
2 -1 -6 99.95 7.1
-2 -1 6 101.95 7.02
2 -1 -6 98.42 7.46
2 -1 -6 96.14 6.97
-2 -1 6 89.76 7.08
-2 1 6 92.69 6.99
-2 1 6 85.86 7.01
-2 1 6 93.51 7
-2 1 6 107.78 6.71
-2 1 6 100.73 7.13
-2 1 6 80.91 6.99
-1 -1 6 0.2 0.08
1 -1 -6 0.19 0.08
-1 -1 6 0.18 0.08
-1 -1 6 0.11 0.05
-1 -1 6 0.25 0.09
1 -1 -6 0.17 0.09
1 -1 -6 0.48 0.12
-1 -1 6 0.16 0.07
1 -1 -6 0.19 0.1
-1 -1 6 0.19 0.06
1 -1 -6 0.12 0.08
-1 -1 6 0.28 0.1
1 -1 -6 0.23 0.1
1 -1 -6 0.31 0.09
1 -1 -6 0.15 0.07
-1 1 6 0.14 0.06
-1 1 6 0.43 0.13
-1 1 6 0.12 0.08
-1 1 6 0.27 0.11
-1 1 6 0.15 0.07
-1 1 6 0.68 0.16
-1 1 6 0.41 0.13
0 -1 -6 459.78 29.8
0 -1 -6 429.16 27.96
0 -1 -6 466.01 31.79
0 -1 6 406.56 32.32
0 -1 -6 475.36 32.35
0 -1 6 445.96 28.83
0 -1 6 431.58 33.7
0 -1 6 446.23 31.75
0 -1 6 444.92 31.9
0 -1 -6 420.38 30.52
0 -1 -6 458.69 36.37
0 -1 6 432.01 31.93
0 -1 6 423.98 31.71
0 -1 6 432.29 31.73
0 -1 6 458.67 33.07
0 -1 -6 425.04 31.45
0 -1 -6 407.72 35.73
0 -1 6 454.9 31.82
0 1 6 377.52 33.69
0 1 6 364.68 31.72
0 1 6 430.29 31.94
0 1 6 431.67 31.93
0 1 6 460.11 31.79
1 -1 6 0.01 0.08
-1 -1 -6 0.02 0.08
-1 -1 -6 0.06 0.08
1 -1 6 0.4 0.13
-1 -1 -6 0.04 0.09
-1 -1 -6 0.09 0.07
-1 -1 -6 0.3 0.1
-1 -1 -6 -0.03 0.08
1 -1 6 0.08 0.08
1 -1 6 0.09 0.07
-1 -1 -6 0.03 0.07
1 -1 6 0.06 0.06
1 -1 6 0.13 0.1
1 -1 6 0.04 0.05
-1 -1 -6 -0.06 0.06
-1 1 -6 0.13 0.09
1 1 6 0.19 0.1
1 1 6 0.06 0.09
1 1 6 -0.04 0.05
1 1 6 0.26 0.1
1 1 6 0.03 0.07
-1 1 -6 -0.01 0.06
2 -1 6 150.13 12.11
2 -1 6 147.5 10.76
2 -1 6 161.76 10.74
2 -1 6 158.92 11.19
-2 -1 -6 151.49 10.66
2 -1 6 162.87 11.39
2 -1 6 161.53 11.55
-2 -1 -6 147.23 10.34
-2 -1 -6 149.84 10.08
-2 -1 -6 143.24 9.47
-2 -1 -6 140.85 10.31
2 -1 6 131.37 11.93
-2 -1 -6 139.76 10.73
-2 -1 -6 142.28 10.44
2 1 6 144.43 11.41
-2 1 -6 123.61 10.34
2 1 6 140.77 10.73
-2 1 -6 131.1 9.48
-3 -1 -6 52.95 3.61
-3 -1 -6 58.62 3.76
3 -1 6 49.02 4.43
3 -1 6 55.1 4.37
-3 -1 -6 56.78 3.43
-3 -1 -6 52.5 3.94
3 -1 6 55.75 4.08
-3 -1 -6 57.63 3.85
3 -1 6 55.27 4.17
-3 -1 -6 55 3.78
-3 -1 -6 50.66 3.82
-3 -1 -6 56.17 3.73
-3 1 -6 46.14 3.7
-3 1 -6 55.24 3.46
-3 1 -6 49.81 3.77
3 1 6 54.83 3.88
3 1 6 46.35 3.25
-3 1 -6 46.15 3.67
-3 1 -6 48.74 3.78
3 1 6 44.57 3.36
3 1 6 52.9 4.02
-3 1 -6 43.4 3.19
3 1 6 43.21 3.3
3 1 6 56.49 4.13
3 1 6 43.85 3.26
-4 -1 -6 68.21 4.37
4 -1 6 73.18 5.17
-4 -1 -6 64.82 5.04
-4 -1 -6 66 4.62
4 -1 6 65.43 5.02
4 -1 6 69.88 5.58
4 -1 6 67.62 5.32
-4 -1 -6 72.61 4.8
4 -1 6 68.81 4.94
4 -1 6 71.36 5.51
-4 -1 -6 66.73 4.89
4 -1 6 68.7 5.67
-4 -1 -6 69.17 4.77
-4 -1 -6 72 4.84
-4 1 -6 58.33 4.69
4 1 6 64.24 4.18
4 1 6 55.84 4.43
-4 1 -6 62.15 4.21
4 1 6 63.89 4.15
4 1 6 63.05 5.14
-4 1 -6 58.02 4.74
4 1 6 72.51 5.28
4 1 6 65.69 4.37
-4 1 -6 69.44 4.83
-4 1 -6 63.76 3.86
4 1 6 60.85 4.41
-4 1 -6 64.77 4.1
4 1 6 65.85 4.24
-4 1 -6 69.5 4.4
-4 1 -6 71.28 4.87
4 1 6 62.13 4.35
4 1 6 63.3 4.3
-4 1 -6 62.42 4.12
-4 1 -6 64.77 4.04
4 1 6 67.53 4.96
-4 1 -6 63.79 4.01
-4 1 -6 63.53 4.56
-5 -1 -6 9.9 0.82
-5 -1 -6 8.1 0.7
5 -1 6 8.92 0.91
5 -1 6 9.29 0.86
-5 -1 -6 9.61 0.83
5 -1 6 8.25 0.78
5 -1 6 7.9 0.89
-5 -1 -6 7.21 0.77
-5 -1 -6 8.52 0.82
-5 -1 -6 9.21 0.81
5 -1 6 8.91 0.88
5 1 6 9.37 0.77
-5 1 -6 9.66 0.86
5 1 6 8.56 0.82
-5 1 -6 9.52 0.7
5 1 6 8.38 0.84
-5 1 -6 9.02 0.85
-5 1 -6 9.49 0.72
-5 1 -6 9.39 0.72
5 1 6 9.01 0.68
-5 1 -6 8.25 0.79
-5 1 -6 7.53 0.68
5 1 6 8.86 0.76
-5 1 -6 8.47 0.76
5 1 6 8.5 0.69
5 1 6 9.13 0.7
5 1 6 9.5 0.75
-5 1 -6 8.04 0.78
5 1 6 8.77 0.7
-5 1 -6 9.65 0.69
5 1 6 9.24 0.7
6 1 6 74.67 4.84
-6 1 -6 77.59 4.48
6 1 6 66.88 4.53
-6 1 -6 75.84 4.53
-6 1 -6 67.71 4.99
-6 1 -6 73.19 5.16
6 1 6 68.16 4.84
-6 1 -6 74.53 4.4
6 1 6 73.14 4.63
-6 1 -6 66.69 4.36
6 1 6 74.36 4.54
6 1 6 73.35 4.76
-6 1 -6 65.25 4.59
6 1 6 70.6 4.69
7 -1 6 5.61 0.49
7 -1 6 5.55 0.52
7 -1 6 5.52 0.47
7 -1 6 5.62 0.52
7 -1 6 5.9 0.53
-7 1 -6 5.09 0.49
-7 1 -6 6.09 0.54
7 1 6 5.64 0.51
7 1 6 5.6 0.54
-7 1 -6 6.16 0.51
7 1 6 5.48 0.54
-7 1 -6 5.76 0.57
7 1 6 5.68 0.54
7 1 6 5.78 0.51
-7 1 -6 5.97 0.6
7 1 6 5.18 0.49
-8 -1 -6 56.81 3.28
-8 -1 -6 50.19 3.21
8 -1 6 48.93 3.42
8 -1 6 57.45 3.55
-8 -1 -6 51.3 3.31
-8 -1 -6 44.03 3.75
8 -1 6 54.1 3.48
8 -1 6 56.93 3.57
-8 -1 -6 55.12 3.23
8 1 6 54.72 3.33
8 1 6 56.75 3.56
-8 1 -6 55.19 3.81
-8 1 -6 52.8 3.22
8 1 6 50.46 3.55
-8 1 -6 54.92 3.33
-8 1 -6 47.66 3.66
8 1 6 57.12 3.51
8 1 6 49.44 3.38
8 -2 -6 14.83 1.06
8 -2 -6 17.9 1.07
8 -2 -6 17.49 1.14
8 2 -6 16.72 1.18
-8 2 6 14.85 1.07
8 2 -6 16.77 1.15
8 2 -6 16.41 1.14
8 2 -6 16.55 1.16
-8 2 6 17.64 1.14
-8 2 6 17.61 1.11
7 -2 -6 16.6 1.3
7 -2 -6 20.66 1.38
7 -2 -6 20.66 1.31
7 -2 -6 19.37 1.36
7 -2 -6 20.54 1.3
-7 2 6 18.96 1.37
-7 2 6 20.88 1.35
7 2 -6 19.85 1.43
7 2 -6 17.21 1.3
7 2 -6 19.73 1.33
-7 2 6 21.63 1.38
-7 2 6 20.2 1.41
7 2 -6 20.5 1.43
7 2 -6 17.13 1.29
7 2 -6 20.77 1.44
7 2 -6 21.38 1.47
7 2 -6 19.65 1.39
-7 2 6 21.49 1.51
6 -2 -6 0.61 0.16
6 2 -6 0.26 0.17
6 2 -6 0.32 0.2
-6 2 6 0.74 0.25
6 2 -6 0.77 0.3
6 2 -6 1.77 0.37
6 2 -6 0.35 0.19
6 2 -6 0.53 0.21
6 2 -6 0.2 0.15
-6 2 6 0.42 0.17
-6 2 6 0.55 0.25
6 2 -6 0.45 0.18
-6 2 6 1.31 0.35
6 2 -6 0.38 0.23
-6 2 6 1.47 0.32
-6 2 6 0.62 0.24
6 2 -6 1.49 0.3
-5 -2 6 0.71 0.25
5 -2 -6 1.07 0.32
5 -2 -6 1.29 0.34
-5 -2 6 1.38 0.33
5 -2 -6 1.77 0.38
-5 -2 6 1.46 0.33
-5 -2 6 1.4 0.31
-5 -2 6 1.61 0.34
5 -2 -6 0.9 0.27
5 2 -6 1.3 0.32
-5 2 6 1.02 0.29
-5 2 6 0.73 0.33
5 2 -6 1.69 0.38
5 2 -6 1.2 0.3
-5 2 6 1.54 0.34
-5 2 6 1.38 0.39
5 2 -6 1.3 0.28
-5 2 6 1.3 0.26
5 2 -6 1.47 0.25
5 2 -6 1.16 0.23
5 2 -6 1.11 0.29
-5 2 6 2.11 0.4
-5 2 6 1.22 0.29
-5 2 6 2.21 0.41
5 2 -6 1.31 0.26
5 2 -6 1.28 0.29
5 2 -6 1.88 0.33
5 2 -6 1.31 0.33
5 2 -6 1.71 0.36
4 -2 -6 147.3 11.26
-4 -2 6 171.82 11.3
-4 -2 6 144.58 10.79
4 -2 -6 157.69 12.93
4 -2 -6 157.91 12.7
-4 -2 6 161.58 11.3
-4 -2 6 149.38 11.48
4 -2 -6 151.48 12.07
4 -2 -6 158.53 11.49
-4 -2 6 155.32 11.36
-4 2 6 126.06 11.33
4 2 -6 161.56 9.84
-4 2 6 151.27 9.25
4 2 -6 148.13 9.76
4 2 -6 147.04 10.86
-4 2 6 149.29 10.42
4 2 -6 141.3 8.55
4 2 -6 150.14 8.74
4 2 -6 149.7 10.99
4 2 -6 170.22 10.12
4 2 -6 145.28 9.52
4 2 -6 147.04 9.01
-4 2 6 149.85 11.6
4 2 -6 159.1 9.62
4 2 -6 145.25 8.72
4 2 -6 156.67 10.01
4 2 -6 145.99 10.84
-4 2 6 151.04 9.7
-4 2 6 147.64 9.24
4 2 -6 166.74 9.87
4 2 -6 155.9 9.49
4 2 -6 144.97 9.34
4 2 -6 144.88 9.04
4 2 -6 149.84 8.73
-4 2 6 147.91 9.64
4 2 -6 148.47 8.68
4 2 -6 154.63 9.25
4 2 -6 165.7 9.81
4 2 -6 162.32 9.42
-4 2 6 149.5 8.71
-4 2 6 146.48 9.37
4 2 -6 152.27 9.94
3 -2 -6 5.47 0.51
-3 -2 6 5.76 0.55
-3 -2 6 6.27 0.56
-3 -2 6 5.62 0.56
3 -2 -6 5.59 0.61
-3 -2 6 5.48 0.51
3 -2 -6 6 0.64
-3 -2 6 5.63 0.55
3 -2 -6 5.38 0.56
3 -2 -6 5.47 0.55
3 -2 -6 6.55 0.58
3 -2 -6 5.32 0.53
3 2 -6 5.08 0.44
3 2 -6 5.11 0.51
3 2 -6 5.43 0.47
3 2 -6 5.91 0.48
3 2 -6 5.4 0.51
3 2 -6 5.69 0.44
3 2 -6 5.58 0.46
-3 2 6 5.45 0.62
-3 2 6 5.16 0.52
-3 2 6 5.11 0.48
3 2 -6 5.45 0.47
3 2 -6 5.57 0.45
3 2 -6 5.21 0.47
3 2 -6 5.32 0.47
3 2 -6 5.94 0.46
3 2 -6 5.06 0.51
3 2 -6 5.68 0.52
3 2 -6 5.34 0.46
3 2 -6 5.49 0.45
3 2 -6 5.7 0.52
3 2 -6 4.8 0.44
3 2 -6 5.89 0.46
-3 2 6 5.12 0.45
3 2 -6 5.97 0.53
3 2 -6 5.03 0.5
-3 2 6 5.1 0.47
-3 2 6 4.96 0.55
3 2 -6 6.14 0.51
3 2 -6 5.63 0.51
3 2 -6 5.31 0.46
-3 2 6 5.54 0.53
-3 2 6 5.03 0.46
-3 2 6 5.04 0.5
3 2 -6 5.34 0.46
-3 2 6 5.15 0.62
3 2 -6 5.99 0.47
-3 2 6 5.27 0.51
3 2 -6 5.96 0.54
3 2 -6 6.06 0.45
3 2 -6 6.13 0.54
3 2 -6 5.26 0.47
2 -2 -6 136.27 9.68
-2 -2 6 132.53 9.35
2 -2 -6 125.57 10.43
-2 -2 6 145.31 9.77
2 -2 -6 138.86 9.79
-2 -2 6 142.1 9.76
2 -2 -6 141.22 9.18
2 -2 -6 141.9 11.2
2 -2 -6 143.21 9.97
2 -2 -6 137.38 10.99
-2 -2 6 125.32 9.45
-2 -2 6 142.58 9.83
-2 -2 6 140.78 9.94
2 2 -6 131.22 7.98
2 2 -6 127.95 7.83
2 2 -6 122.78 7.58
-2 2 6 115.46 8.33
-2 2 6 118.17 8.35
-2 2 6 131.97 9.82
2 2 -6 137 7.89
-2 2 6 114.81 8.01
2 2 -6 139.09 8.55
2 2 -6 135.61 8.35
-2 2 6 117.89 9.77
2 2 -6 133.68 7.87
2 2 -6 129 7.41
-2 2 6 124.55 8.27
2 2 -6 147.55 9.3
2 2 -6 135.41 7.93
2 2 -6 133.21 8.34
2 2 -6 137 8.47
2 2 -6 135.37 7.61
2 2 -6 133.27 8
-2 2 6 121.1 8.08
2 2 -6 128.99 9
2 2 -6 134.58 8.07
2 2 -6 133.04 8.48
2 2 -6 140.72 8.69
2 2 -6 133.87 9.43
2 2 -6 132.19 7.58
-2 2 6 114.54 9.42
2 2 -6 134.43 8.11
2 2 -6 133.31 8.34
-2 2 6 121.36 7.98
-2 2 6 116.91 7.54
2 2 -6 133.24 7.56
2 2 -6 137.98 8.16
2 2 -6 136.79 8.64
2 2 -6 131.13 8.24
2 2 -6 132.88 7.6
2 2 -6 130.26 7.43
2 2 -6 135.06 8.32
2 2 -6 131.21 8.26
2 2 -6 128.53 8.48
2 2 -6 128.03 8.24
2 2 -6 129.12 8.07
2 2 -6 134.58 7.6
2 2 -6 134.39 7.96
2 2 -6 131.24 9.56
2 2 -6 128.26 9.44
2 2 -6 132.73 8.04
2 2 -6 134.68 7.53
2 2 -6 135.33 8.75
-1 -2 6 171.25 11.89
1 -2 -6 183.92 11.95
1 -2 -6 180.09 12.16
-1 -2 6 178.45 11.98
-1 -2 6 171.72 11.92
1 -2 -6 164.64 13.39
1 -2 -6 170.03 13.65
-1 -2 6 184.06 11.91
1 -2 -6 174.28 10.51
-1 -2 6 172.39 12.65
-1 -2 6 165.12 12.12
-1 -2 6 162.47 11.55
-1 -2 6 161.85 11.41
1 -2 -6 180.14 11.21
-1 -2 6 177.3 11.97
1 -2 -6 172.47 11.82
1 2 -6 157.67 10.58
1 2 -6 162.45 9.61
-1 2 6 144.84 9.72
1 2 -6 151.94 9.55
-1 2 6 136.66 11.66
1 2 -6 165.6 9.27
1 2 -6 164.7 10.35
1 2 -6 158.19 10.34
1 2 -6 156.23 9.18
1 2 -6 162.22 9.67
1 2 -6 161.51 10.99
1 2 -6 181.16 11.35
1 2 -6 159.69 9.83
1 2 -6 162.32 9.81
1 2 -6 163.59 10.67
1 2 -6 164.06 10.08
1 2 -6 161.25 10.04
1 2 -6 162.63 9.63
-1 2 6 150.03 10.15
1 2 -6 161.85 11.51
-1 2 6 138.91 9.77
1 2 -6 168.38 10.55
1 2 -6 160.91 11.67
1 2 -6 162.52 9.26
1 2 -6 155.61 10.18
-1 2 6 156.69 11.93
-1 2 6 146.4 9.19
-1 2 6 151.06 10.2
-1 2 6 149.85 10.09
-1 2 6 144.48 11.96
1 2 -6 152.07 10.05
1 2 -6 160.43 10.18
1 2 -6 159.52 9.28
1 2 -6 159.91 9.95
1 2 -6 156.59 9.04
1 2 -6 159 9.9
-1 2 6 145.06 11.51
1 2 -6 161.05 10.14
1 2 -6 162.48 9.26
1 2 -6 154.98 9.24
1 2 -6 159.37 9.71
1 2 -6 164.7 9.84
1 2 -6 156.58 10.41
1 2 -6 163.27 9.77
1 2 -6 157.27 11.52
1 2 -6 163.79 9.71
1 2 -6 161.62 10.18
1 2 -6 165.48 10.32
1 2 -6 157.15 9.21
1 2 -6 162.6 9.05
0 -2 6 10.77 0.87
0 -2 6 11.16 0.91
0 -2 -6 11.82 0.91
0 -2 -6 12.14 0.91
0 -2 -6 10.93 0.99
0 -2 6 11.03 0.86
0 -2 -6 12.31 0.91
0 -2 6 10.9 0.92
0 -2 -6 12.39 0.86
0 -2 6 10.89 0.99
0 -2 6 10.77 0.79
0 -2 -6 11.28 0.8
0 -2 6 10.74 0.96
0 -2 6 11.65 0.88
0 -2 6 11.21 1.02
0 2 -6 10.42 0.78
0 2 6 10.15 0.75
0 2 -6 11.48 0.8
0 2 -6 10 0.69
0 2 6 9.46 0.87
0 2 -6 11.31 0.89
0 2 -6 10.09 0.75
0 2 -6 10.73 0.7
0 2 6 9.42 0.88
0 2 -6 11.76 0.77
0 2 -6 10.5 0.8
0 2 -6 10.34 0.76
0 2 -6 10.5 0.73
0 2 6 9.79 0.87
0 2 -6 10.51 0.86
0 2 -6 10.74 0.85
0 2 -6 10.87 0.8
0 2 -6 10.12 0.71
0 2 -6 11.48 0.78
0 2 -6 9.87 0.76
0 2 -6 10.34 0.72
0 2 -6 10.26 0.78
0 2 6 10.05 0.89
0 2 6 9.69 0.72
0 2 -6 10.85 0.78
0 2 -6 11.16 0.82
0 2 -6 10.95 0.75
0 2 6 10.01 0.78
0 2 -6 10.26 0.72
0 2 -6 10.26 0.72
0 2 6 10.02 0.77
0 2 -6 10.38 0.71
0 2 -6 10.32 0.7
0 2 -6 11.16 0.78
0 2 -6 9.81 0.74
0 2 -6 10.26 0.75
0 2 -6 11.13 0.76
0 2 -6 10.59 0.75
0 2 6 10.2 0.88
0 2 -6 10.33 0.75
0 2 -6 10.35 0.79
0 2 -6 10 0.76
0 2 -6 10.3 0.74
0 2 -6 9.97 0.76
0 2 -6 9.78 0.86
0 2 -6 10.91 0.72
0 2 -6 10.35 0.86
0 2 -6 11.31 0.77
0 2 -6 11.14 0.82
1 -2 6 8.53 0.75
-1 -2 -6 8.13 0.67
-1 -2 -6 8.1 0.61
1 -2 6 8.66 0.79
1 -2 6 8.44 0.69
-1 -2 -6 8.43 0.69
-1 -2 -6 8.03 0.66
1 -2 6 8.34 0.75
-1 -2 -6 8.07 0.67
1 -2 6 7.88 0.64
-1 -2 -6 8.51 0.65
1 -2 6 7.83 0.8
1 2 6 7.72 0.59
-1 2 -6 6.65 0.65
-1 2 -6 7.92 0.61
-1 2 -6 7.84 0.6
-1 2 -6 8.2 0.59
1 2 6 6.7 0.66
-1 2 -6 7.6 0.56
-1 2 -6 7.42 0.55
-1 2 -6 8.49 0.6
-1 2 -6 7.27 0.54
-1 2 -6 7.71 0.56
-1 2 -6 8.45 0.58
-1 2 -6 8.12 0.54
-1 2 -6 7.3 0.58
-1 2 -6 7.54 0.59
-1 2 -6 8.79 0.7
1 2 6 8.12 0.6
-1 2 -6 7.8 0.6
-1 2 -6 7.3 0.53
1 2 6 7 0.56
1 2 6 7.65 0.67
-1 2 -6 7.69 0.59
1 2 6 6.97 0.58
-1 2 -6 7.53 0.57
-1 2 -6 8.3 0.54
-1 2 -6 7.4 0.52
1 2 6 7.01 0.67
-1 2 -6 6.66 0.64
1 2 6 7.26 0.61
-1 2 -6 7.5 0.55
-1 2 -6 7.65 0.66
-1 2 -6 7.48 0.54
-1 2 -6 7.7 0.57
-1 2 -6 6.77 0.64
1 2 6 6.69 0.59
-1 2 -6 6.62 0.57
-1 2 -6 6.75 0.55
-1 2 -6 7.66 0.59
-1 2 -6 7.42 0.57
-2 -2 -6 151.61 9.73
-2 -2 -6 151.02 8.91
2 -2 6 146.08 10.84
2 -2 6 145.4 10.31
2 -2 6 145.94 11.38
-2 -2 -6 142.57 9.81
2 -2 6 143.11 11.19
2 -2 6 148.6 11.6
-2 -2 -6 145.46 10
-2 -2 -6 135.96 10.06
-2 -2 -6 141.92 9.46
2 -2 6 146.77 10.48
2 2 6 140.43 9.75
2 2 6 129.87 8.53
-2 2 -6 132.35 7.65
2 2 6 116.32 8.41
-2 2 -6 130.59 7.84
-2 2 -6 123.65 7.74
2 2 6 136.39 8.53
-2 2 -6 118.64 8.09
2 2 6 126.85 9.76
-2 2 -6 139.61 8.4
-2 2 -6 139.35 9.6
2 2 6 124.91 8.62
2 2 6 132.51 8.94
2 2 6 138.41 9.89
-2 2 -6 137.96 9.31
-2 2 -6 130.54 8.32
-2 2 -6 140.16 8.63
-2 2 -6 142.73 8.22
-2 2 -6 123.42 7.82
-2 2 -6 133.59 8.17
-2 2 -6 134.32 8.57
2 2 6 129.21 8.6
-2 2 -6 138.19 8.33
-2 2 -6 133.49 8.21
2 2 6 130.81 8.77
3 -2 6 1.15 0.28
-3 -2 -6 1.28 0.27
3 -2 6 1.21 0.26
-3 -2 -6 0.81 0.23
-3 -2 -6 0.99 0.2
3 -2 6 1.34 0.28
-3 -2 -6 1.54 0.3
-3 -2 -6 1.02 0.24
3 -2 6 1.29 0.34
3 -2 6 1.54 0.27
3 -2 6 1.08 0.25
-3 -2 -6 1.67 0.28
3 2 6 1.08 0.24
-3 2 -6 1.36 0.25
3 2 6 1.42 0.26
-3 2 -6 1.13 0.28
3 2 6 0.97 0.19
-3 2 -6 1.25 0.23
-3 2 -6 1.49 0.27
3 2 6 1.43 0.27
3 2 6 1.32 0.3
-3 2 -6 1.23 0.28
-3 2 -6 1.17 0.27
3 2 6 0.85 0.19
3 2 6 1.18 0.24
-3 2 -6 1.29 0.31
3 2 6 1.4 0.26
3 2 6 1.05 0.23
3 2 6 1.09 0.21
3 2 6 1.22 0.24
-3 2 -6 1.12 0.27
-3 2 -6 1.77 0.32
4 -2 6 153.15 13.54
4 -2 6 144.11 12.02
-4 -2 -6 143.66 11.87
4 -2 6 172.56 13.81
-4 -2 -6 163.57 11.56
-4 -2 -6 166.61 11.71
4 -2 6 149.36 12.48
4 -2 6 167.57 12.27
-4 -2 -6 168.18 11.59
4 -2 6 160.63 13.34
4 -2 6 159.62 12.91
-4 -2 -6 153.5 12.26
-4 -2 -6 161.21 10.59
4 2 6 168.94 10.32
-4 2 -6 167.71 11.46
4 2 6 175.05 10.48
4 2 6 161.58 10.09
-4 2 -6 168.69 9.77
-4 2 -6 164.19 9.92
-4 2 -6 161.31 9.78
-4 2 -6 158.04 10.28
4 2 6 150.88 10.55
-4 2 -6 165.1 9.95
4 2 6 176.02 10.66
4 2 6 166.52 11.75
4 2 6 176.5 11.64
4 2 6 171.15 10.17
-4 2 -6 166.03 10.03
4 2 6 142.55 10.68
-4 2 -6 167.87 11.11
5 2 6 28.44 1.94
5 2 6 26.78 1.86
-5 2 -6 26.76 1.89
5 2 6 24.09 2.07
5 2 6 26.7 2
-5 2 -6 24.86 1.79
-5 2 -6 30.01 1.87
-5 2 -6 26.25 1.81
5 2 6 29.26 1.93
-5 2 -6 29.76 2.08
-5 2 -6 28.86 1.91
5 2 6 28.28 1.94
-5 2 -6 28.67 2.17
5 2 6 28.58 1.9
-5 2 -6 29.43 1.88
5 2 6 25.11 2.01
6 2 6 9.55 0.78
-6 2 -6 8.59 0.76
-6 2 -6 10.24 0.92
6 2 6 10.37 0.79
-6 2 -6 10.36 0.82
6 2 6 9.96 0.79
6 2 6 8.68 0.73
-6 2 -6 10.1 0.88
-6 2 -6 8.98 0.75
6 2 6 9.74 0.85
-6 2 -6 10.14 0.78
6 2 6 9.47 0.84
7 -2 6 0.27 0.12
7 -2 6 0.23 0.13
7 2 6 -0.04 0.15
-7 2 -6 0.38 0.21
7 2 6 0.06 0.14
-7 2 -6 0.23 0.15
-7 2 -6 0.2 0.17
7 2 6 0.18 0.17
7 2 6 0.23 0.13
7 2 6 0.32 0.16
-7 2 -6 0.1 0.13
7 2 6 0.19 0.13
-7 2 -6 0.26 0.18
-8 2 -6 10.64 0.86
7 -3 -6 1.91 0.2
7 3 -6 1.45 0.26
6 -3 -6 29.17 1.89
-6 3 6 35.04 2.21
-6 3 6 34.99 2.12
6 3 -6 33.44 2.27
6 3 -6 34.7 2.3
-6 3 6 35.13 2.19
6 3 -6 31.62 2.09
6 3 -6 32.35 2.1
-6 3 6 37.2 2.17
6 3 -6 29.02 2.08
6 3 -6 29.04 2.16
6 3 -6 33.72 2.23
6 3 -6 36.06 2.25
6 3 -6 32.33 2.14
-6 3 6 30.35 1.94
6 3 -6 32.66 2.21
-5 3 6 0.26 0.17
-5 3 6 0.01 0.14
5 3 -6 0.11 0.14
5 3 -6 0.12 0.15
5 3 -6 0.17 0.19
5 3 -6 0.41 0.23
5 3 -6 0.17 0.14
5 3 -6 0.14 0.24
5 3 -6 0.2 0.2
5 3 -6 0.14 0.13
5 3 -6 0.25 0.2
-5 3 6 0.32 0.24
-5 3 6 0.11 0.19
5 3 -6 0.82 0.29
5 3 -6 0.25 0.2
5 3 -6 0.15 0.17
-5 3 6 0.24 0.24
5 3 -6 0.4 0.17
5 3 -6 0.31 0.17
-5 3 6 0.13 0.2
4 3 -6 8.36 0.66
4 3 -6 8.65 0.69
4 3 -6 8.7 0.81
4 3 -6 9.47 0.81
4 3 -6 9.36 0.79
4 3 -6 8.75 0.71
4 3 -6 7.72 0.65
4 3 -6 8.59 0.77
4 3 -6 7.92 0.77
-4 3 6 7.69 0.77
-4 3 6 8.22 0.7
4 3 -6 8.88 0.74
-4 3 6 8.35 0.78
4 3 -6 8.25 0.77
4 3 -6 9.58 0.8
4 3 -6 8.45 0.76
4 3 -6 7.53 0.73
4 3 -6 8.58 0.7
4 3 -6 8.02 0.69
-4 3 6 8.37 0.68
-4 3 6 8.87 0.79
-4 3 6 7.97 0.76
4 3 -6 8.32 0.68
3 3 -6 16.65 1.28
3 3 -6 16.68 1.23
-3 3 6 15.24 1.21
-3 3 6 15.48 1.2
3 3 -6 15.51 1.1
3 3 -6 17.23 1.34
3 3 -6 15.36 1.1
3 3 -6 17.51 1.23
3 3 -6 17.32 1.35
3 3 -6 17.49 1.2
3 3 -6 15.18 1.21
3 3 -6 16.58 1.22
-3 3 6 15.59 1.23
3 3 -6 16.62 1.17
-3 3 6 14.88 1.2
-3 3 6 15.22 1.12
3 3 -6 15.22 1.11
3 3 -6 15.82 1.13
3 3 -6 17.01 1.3
3 3 -6 17.33 1.27
3 3 -6 14.92 1.23
3 3 -6 16.61 1.33
3 3 -6 16.95 1.19
3 3 -6 16.84 1.18
3 3 -6 15.42 1.16
3 3 -6 18.13 1.25
3 3 -6 16.28 1.15
3 3 -6 16.7 1.27
-3 3 6 14.63 1.16
-3 3 6 14.92 1.25
3 3 -6 17.15 1.17
2 -3 -6 36.86 3.2
2 -3 -6 39.19 2.87
2 -3 -6 41.32 3.25
2 -3 -6 40.02 3.05
2 -3 -6 40.03 3.29
2 -3 -6 37.64 3.68
-2 3 6 38 2.75
2 3 -6 44.27 2.54
2 3 -6 44.05 2.77
-2 3 6 39 2.78
2 3 -6 42.2 2.54
2 3 -6 43.87 2.9
2 3 -6 42.3 2.49
-2 3 6 37.11 2.72
-2 3 6 37.55 2.79
2 3 -6 42.39 2.67
2 3 -6 40.04 2.75
2 3 -6 41.81 2.72
2 3 -6 42.77 2.54
2 3 -6 42.98 2.48
2 3 -6 43.4 2.69
2 3 -6 41.39 2.85
2 3 -6 42.98 2.63
2 3 -6 44.32 2.65
2 3 -6 40.83 2.91
-2 3 6 37.11 2.52
2 3 -6 42.65 2.55
2 3 -6 40.62 2.97
2 3 -6 44.84 3.1
-2 3 6 36.75 3.08
-2 3 6 40.45 2.69
2 3 -6 43.99 2.56
2 3 -6 41.98 2.67
2 3 -6 43.35 2.84
2 3 -6 43.21 3.15
2 3 -6 42.14 2.76
2 3 -6 41.36 2.83
2 3 -6 42.16 2.5
2 3 -6 40.43 2.54
2 3 -6 43.7 2.65
2 3 -6 41.21 2.71
2 3 -6 41.81 2.77
2 3 -6 39.54 2.61
2 3 -6 43.42 2.71
2 3 -6 43.62 2.64
2 3 -6 44.33 2.82
2 3 -6 41.82 3.1
2 3 -6 43.76 2.85
2 3 -6 43.46 2.69
2 3 -6 43.69 2.73
2 3 -6 44.24 2.76
2 3 -6 42.09 2.64
-2 3 6 39.05 2.66
-2 3 6 38.47 2.68
2 3 -6 42.46 3.11
1 -3 -6 2.65 0.45
1 -3 -6 2.1 0.4
1 -3 -6 2.08 0.4
1 -3 -6 3.19 0.47
1 -3 -6 2.74 0.43
1 3 -6 3.4 0.41
1 3 -6 2.88 0.34
1 3 -6 3.22 0.45
1 3 -6 3.19 0.4
-1 3 6 2.68 0.39
1 3 -6 3.27 0.43
-1 3 6 3.28 0.45
1 3 -6 2.79 0.36
1 3 -6 2.95 0.42
1 3 -6 3.53 0.44
-1 3 6 2.6 0.34
1 3 -6 3.39 0.37
1 3 -6 3.14 0.41
1 3 -6 2.83 0.44
1 3 -6 3.22 0.36
1 3 -6 2.89 0.35
1 3 -6 3.08 0.45
1 3 -6 3.39 0.38
1 3 -6 2.69 0.4
1 3 -6 2.69 0.4
1 3 -6 2.95 0.39
1 3 -6 2.83 0.38
1 3 -6 2.69 0.38
-1 3 6 2.98 0.38
-1 3 6 3.17 0.45
1 3 -6 3.95 0.52
1 3 -6 3.18 0.38
1 3 -6 2.92 0.38
1 3 -6 3 0.41
1 3 -6 3.14 0.4
1 3 -6 3.18 0.4
1 3 -6 2.45 0.41
1 3 -6 2.63 0.37
1 3 -6 2.76 0.44
1 3 -6 3.09 0.39
1 3 -6 3.29 0.39
1 3 -6 2.71 0.38
1 3 -6 3.47 0.34
1 3 -6 3.16 0.44
1 3 -6 2.93 0.37
1 3 -6 3.2 0.4
-1 3 6 2.48 0.38
1 3 -6 3.5 0.44
1 3 -6 3.41 0.45
-1 3 6 2.48 0.41
-1 3 6 2.43 0.39
-1 3 6 2.57 0.39
-1 3 6 2.69 0.39
1 3 -6 3.35 0.44
1 3 -6 3.02 0.39
0 -3 -6 138.89 9.65
0 -3 6 118.45 9.63
0 -3 -6 137.4 10.19
0 -3 -6 141.02 9.07
0 -3 -6 138.89 9.91
0 -3 6 115.77 10.15
0 -3 -6 129.06 10.26
0 3 -6 140.92 8.48
0 3 -6 137.02 9.07
0 3 6 147.51 7.94
0 3 6 133.32 9.93
0 3 6 125.71 8.33
0 3 -6 142.26 8
0 3 -6 134.01 9.91
0 3 -6 148.34 8.02
0 3 6 139.1 8.71
0 3 -6 144.49 8.37
0 3 -6 140.79 8.66
0 3 -6 149.18 9.8
0 3 -6 143.15 8.32
0 3 -6 138.7 7.81
0 3 6 124.49 10.05
0 3 6 133.62 8.79
0 3 -6 137.22 8.78
0 3 -6 133.82 8.75
0 3 -6 135.73 9.89
0 3 -6 133.96 9.46
0 3 -6 139.99 8.91
0 3 6 140.33 8.44
0 3 -6 144.22 7.95
0 3 6 134.29 8.73
0 3 -6 141.96 8.41
0 3 -6 136.62 8.67
0 3 -6 144.76 8.55
0 3 -6 138.68 8
0 3 -6 136.79 8.75
0 3 6 129.91 9.92
0 3 6 117.77 9.05
0 3 -6 148.53 7.97
0 3 -6 143.75 7.99
0 3 -6 140.6 8.47
0 3 -6 134.9 8.56
0 3 -6 146.45 8.29
0 3 -6 141.22 10.04
0 3 -6 144.96 7.91
0 3 -6 142.84 8.36
0 3 -6 144.74 8.74
0 3 -6 158.8 8.27
1 -3 6 5.89 0.7
-1 -3 -6 6.13 0.65
1 -3 6 5.5 0.7
1 -3 6 5.56 0.79
-1 -3 -6 6.8 0.72
-1 -3 -6 6.48 0.7
1 -3 6 6.3 0.68
-1 -3 -6 7.01 0.64
-1 -3 -6 6.95 0.71
-1 3 -6 7.09 0.57
1 3 6 5.83 0.57
1 3 6 7.37 0.69
-1 3 -6 6.63 0.64
-1 3 -6 7.36 0.73
-1 3 -6 7.6 0.63
-1 3 -6 7.31 0.57
-1 3 -6 6.97 0.54
-1 3 -6 7.54 0.65
1 3 6 7.62 0.58
1 3 6 6.35 0.53
-1 3 -6 7.66 0.57
-1 3 -6 7.34 0.57
-1 3 -6 8.43 0.61
-1 3 -6 7.35 0.58
-1 3 -6 7.18 0.56
-1 3 -6 5.84 0.63
1 3 6 7.11 0.69
1 3 6 6.7 0.59
-1 3 -6 6.9 0.57
-1 3 -6 8.26 0.71
-1 3 -6 6.72 0.64
1 3 6 5.84 0.59
1 3 6 6.71 0.7
1 3 6 6.9 0.63
-1 3 -6 6.8 0.56
-1 3 -6 7.03 0.63
-1 3 -6 7.94 0.6
-1 3 -6 7.25 0.63
-1 3 -6 7.55 0.63
1 3 6 7.12 0.6
1 3 6 7.14 0.61
-1 3 -6 7.95 0.62
-2 -3 -6 56.95 4.68
-2 -3 -6 62.44 4.75
2 -3 6 52.83 5.43
-2 -3 -6 57.24 4.8
-2 -3 -6 62.39 4.3
-2 -3 -6 61.8 4.7
2 -3 6 57.07 4.96
2 -3 6 54.79 5.56
-2 3 -6 66.26 4.13
-2 3 -6 61.72 3.76
-2 3 -6 66.81 4.06
-2 3 -6 63.15 3.69
2 3 6 60.42 4.12
-2 3 -6 67.97 4.19
-2 3 -6 66.56 4.69
2 3 6 57.42 4.15
-2 3 -6 62.86 3.95
2 3 6 66.09 4.14
-2 3 -6 68.45 4
-2 3 -6 68.48 4.11
-2 3 -6 68.54 3.98
-2 3 -6 64.04 3.9
2 3 6 65.2 3.96
2 3 6 67.67 4.34
2 3 6 72.89 4.73
2 3 6 67.18 4.78
-2 3 -6 64.42 3.73
-2 3 -6 65.46 3.99
2 3 6 61.97 4.24
2 3 6 68.6 4.74
2 3 6 67.37 4.12
-2 3 -6 66.75 4.53
-2 3 -6 69.09 4.04
-2 3 -6 66.26 3.81
-3 3 -6 7.92 0.69
3 3 6 6.49 0.65
-3 3 -6 7.58 0.65
-3 3 -6 7.67 0.65
3 3 6 8.33 0.75
-3 3 -6 7.09 0.68
3 3 6 6.8 0.64
-3 3 -6 7.86 0.7
-3 3 -6 7.46 0.75
3 3 6 7.26 0.6
-3 3 -6 7.68 0.63
3 3 6 7.97 0.72
3 3 6 6.66 0.68
3 3 6 8.14 0.75
3 3 6 7.22 0.6
-3 3 -6 6.56 0.62
3 3 6 8.24 0.7
3 3 6 7.15 0.69
-3 3 -6 7.35 0.79
-3 3 -6 8.14 0.72
4 3 6 17.28 1.44
4 3 6 19.09 1.55
-4 3 -6 18.68 1.4
4 3 6 17.12 1.39
4 3 6 18.83 1.43
-4 3 -6 20.18 1.39
-4 3 -6 20.81 1.44
-4 3 -6 19.44 1.34
4 3 6 20.01 1.45
4 3 6 18.55 1.37
-4 3 -6 18.61 1.36
-4 3 -6 21 1.55
-4 3 -6 19.47 1.3
4 3 6 19.78 1.56
4 3 6 18.52 1.51
-4 3 -6 20.68 1.63
4 3 6 21.01 1.45
5 3 6 8.19 0.7
5 3 6 7.37 0.72
-5 3 -6 7.81 0.8
5 3 6 8.04 0.69
-5 3 -6 7.4 0.67
-5 3 -6 7.77 0.65
-5 3 -6 8.55 0.76
-5 3 -6 8.23 0.67
-5 3 -6 9.09 0.71
5 3 6 7.86 0.66
5 3 6 7.6 0.7
5 3 6 8.02 0.71
5 3 6 7.65 0.64
6 3 6 60.34 3.92
6 3 6 56.43 3.92
6 3 6 59.68 3.76
-6 3 -6 53.16 3.59
6 3 6 61.69 3.84
-6 3 -6 60.21 3.73
6 3 6 60.86 3.89
-6 3 -6 61.31 4.29
-6 3 -6 61.85 4.14
6 3 6 63.66 3.77
-6 3 -6 58.24 3.82
-6 3 -6 55.48 3.66
-4 4 6 40.31 2.56
-4 4 6 37.77 2.56
4 4 -6 42.09 2.63
-4 4 6 40.92 2.68
4 4 -6 41.03 2.58
-4 4 6 37.24 2.53
-4 4 6 41.22 2.41
4 4 -6 41.17 2.71
4 4 -6 43.68 2.77
-3 4 6 9.37 0.74
-3 4 6 8.02 0.67
-3 4 6 7.88 0.69
3 4 -6 6.88 0.66
3 4 -6 9.45 0.67
3 4 -6 8.22 0.69
3 4 -6 9.79 0.67
3 4 -6 8.71 0.67
-3 4 6 8.07 0.67
3 4 -6 8.03 0.67
-3 4 6 7.93 0.64
-3 4 6 8.83 0.67
2 4 -6 26.14 2.09
2 4 -6 29.47 1.84
2 4 -6 25.92 1.81
2 4 -6 24.44 1.83
-2 4 6 25.68 1.85
-2 4 6 27.48 1.89
-2 4 6 25.35 1.81
-2 4 6 27.78 1.8
-2 4 6 25.34 1.77
-2 4 6 28.12 1.71
2 4 -6 29.67 1.91
2 4 -6 27.1 2.08
-2 4 6 28.78 1.79
2 4 -6 27.76 2.07
-1 4 6 8.58 0.76
1 4 -6 10.81 0.9
1 4 -6 8.61 0.85
1 4 -6 9.95 0.77
1 4 -6 10.02 0.78
1 4 -6 9.7 0.7
1 4 -6 10.05 0.86
-1 4 6 8.78 0.86
1 4 -6 10.01 0.78
1 4 -6 10.4 0.75
-1 4 6 9.07 0.85
1 4 -6 10.76 0.86
1 4 -6 10.31 0.78
1 4 -6 10.32 0.76
-1 4 6 10.55 0.78
-1 4 6 8.8 0.78
-1 4 6 9.3 0.73
1 4 -6 9.8 0.75
-1 4 6 10.38 0.81
-1 4 6 8.25 0.73
0 4 6 0.03 0.15
0 4 -6 0.3 0.17
0 4 -6 0.08 0.19
0 4 6 0.1 0.19
0 4 -6 0.38 0.18
0 4 -6 0.84 0.3
0 4 -6 0.53 0.21
0 4 -6 0.09 0.2
0 4 -6 -0.01 0.21
0 4 -6 0.11 0.22
0 4 -6 0.07 0.17
0 4 -6 0.4 0.2
0 4 6 0.08 0.17
0 4 6 0.12 0.16
0 4 6 0.4 0.17
0 4 6 0.17 0.18
0 4 6 0.22 0.19
0 4 -6 0.08 0.16
0 4 6 0.09 0.16
0 4 -6 0.17 0.2
0 4 6 0.1 0.15
0 4 -6 0.1 0.22
0 4 -6 0.16 0.21
-1 4 -6 2.87 0.4
1 4 6 3.33 0.41
-1 4 -6 2.97 0.34
-1 4 -6 2.77 0.43
-1 4 -6 2.9 0.36
1 4 6 3.34 0.43
-1 4 -6 3.33 0.38
1 4 6 2.88 0.42
-1 4 -6 3.03 0.41
-1 4 -6 3.37 0.43
-1 4 -6 3.27 0.38
1 4 6 2.77 0.34
-1 4 -6 2.33 0.42
1 4 6 3.1 0.36
1 4 6 2.92 0.36
-1 4 -6 2.76 0.36
-1 4 -6 2.84 0.48
1 4 6 2.44 0.35
1 4 6 2.99 0.31
-1 4 -6 3.5 0.43
-1 4 -6 3.27 0.36
1 4 6 3.25 0.47
-1 4 -6 3.12 0.32
-2 4 -6 36.34 2.55
-2 4 -6 41.76 2.62
-2 4 -6 42.1 2.62
2 4 6 40.74 2.52
2 4 6 40.24 2.62
-2 4 -6 38.84 2.5
2 4 6 37.04 2.63
-2 4 -6 37.25 2.56
2 4 6 44.38 3.07
-2 4 -6 42.57 2.88
2 4 6 45.14 3.02
2 4 6 36.32 3.02
2 4 6 41.69 2.63
-2 4 -6 40.49 2.54
-2 4 -6 37.52 2.51
2 4 6 36.82 2.77
-2 4 -6 39.38 2.37
-2 4 -6 44.51 2.68
-2 4 -6 37.9 2.99
3 4 6 5.54 0.55
-3 4 -6 6.18 0.57
-3 4 -6 5.78 0.51
-3 4 -6 5.19 0.51
3 4 6 4.38 0.48
-3 4 -6 5.47 0.45
-3 4 -6 5.4 0.47
3 4 6 5.78 0.56
3 4 6 5.8 0.47
-3 4 -6 5.06 0.47
3 4 6 4.64 0.49
3 4 6 5.79 0.55
-3 4 -6 4.94 0.48
3 4 6 5.57 0.53
-3 4 -6 5.49 0.59
4 4 6 18.76 1.28
-4 4 -6 18.62 1.23
4 4 6 18.86 1.44
-4 4 -6 17.23 1.44
4 4 6 19.93 1.45
-4 4 -6 16.82 1.24
-4 4 -6 21.89 1.3
-4 4 -6 20.71 1.4
4 4 6 19.2 1.33
-4 4 -6 16.8 1.18
4 4 6 16.53 1.27
4 4 6 19.56 1.33
-8 0 7 0.1 0.15
8 0 -7 0.05 0.12
8 0 -7 0.11 0.13
8 0 -7 0.14 0.12
8 0 -7 0.52 0.18
8 0 -7 0.18 0.12
7 0 -7 72.21 4.41
7 0 -7 65.83 4.18
7 0 -7 60.74 4.24
7 0 -7 63.85 4.47
7 0 -7 72.1 4.42
7 0 -7 66.46 4.53
7 0 -7 68.82 4.14
6 0 -7 0.01 0.12
-6 0 7 0.17 0.13
-6 0 7 0.02 0.15
-6 0 7 -0.04 0.15
-6 0 7 0.12 0.16
-6 0 7 0.05 0.14
6 0 -7 0.32 0.17
6 0 -7 0.07 0.16
6 0 -7 -0.14 0.14
6 0 -7 0.04 0.12
6 0 -7 0.05 0.12
6 0 -7 0.13 0.14
6 0 -7 0 0.1
6 0 -7 0.02 0.15
6 0 -7 0.03 0.08
5 0 -7 162.34 9.93
5 0 -7 174.76 11.03
-5 0 7 183.57 12.61
-5 0 7 158.45 13.18
-5 0 7 194.48 13.43
5 0 -7 167.66 11.36
5 0 -7 187.76 14.12
-5 0 7 193.98 13.18
-5 0 7 185.66 12.74
5 0 -7 171.15 11.34
5 0 -7 182.18 10.69
-5 0 7 180.08 13.21
5 0 -7 175.99 11.72
5 0 -7 186.48 14.81
-5 0 7 181.36 13.15
5 0 -7 154.75 11.6
5 0 -7 185.92 10.82
4 0 -7 0.23 0.14
-4 0 7 0.04 0.09
4 0 -7 0.09 0.1
4 0 -7 0.19 0.11
4 0 -7 0.03 0.1
-4 0 7 0.12 0.08
4 0 -7 0.1 0.08
4 0 -7 0.1 0.1
-4 0 7 0.06 0.08
4 0 -7 0.01 0.09
4 0 -7 0.05 0.1
4 0 -7 0.04 0.09
4 0 -7 0.02 0.1
4 0 -7 0 0.05
-4 0 7 0.07 0.09
-4 0 7 0.12 0.09
-4 0 7 0.05 0.08
-4 0 7 0.02 0.08
4 0 -7 0.05 0.09
-3 0 7 19.32 1.54
3 0 -7 19.19 1.75
-3 0 7 19.8 1.56
-3 0 7 18.59 1.45
3 0 -7 17.48 1.53
-3 0 7 19.58 1.54
-3 0 7 20.13 1.55
3 0 -7 20.43 1.74
-3 0 7 19.48 1.46
3 0 -7 21.45 1.66
-3 0 7 20.28 1.54
2 0 -7 -0.09 0.05
-2 0 7 0.07 0.05
2 0 -7 -0.06 0.04
2 0 -7 -0.08 0.06
-2 0 7 -0.06 0.07
-2 0 7 0.24 0.09
2 0 -7 -0.11 0.06
-2 0 7 -0.03 0.06
-2 0 7 -0.04 0.07
-2 0 7 0.07 0.08
-2 0 7 -0.07 0.05
2 0 -7 -0.09 0.05
-1 0 7 234.97 17.84
-1 0 7 246.61 16.78
-1 0 7 241.72 17.52
-1 0 7 243.27 17.62
1 0 -7 250.84 19.74
1 0 -7 220.34 16.43
1 0 -7 246.1 17.54
-1 0 7 237.41 18.6
-1 0 7 242.42 17.51
-1 0 7 237.69 17.63
1 0 -7 249.39 20.09
1 0 -7 244.07 17.85
-1 0 7 249.85 17.53
1 0 -7 205.16 17.33
0 0 7 -0.27 0.05
0 0 -7 -0.25 0.07
0 0 -7 -0.27 0.04
0 0 7 -0.26 0.05
0 0 7 -0.22 0.06
0 0 7 -0.11 0.07
0 0 -7 -0.27 0.03
0 0 7 -0.24 0.05
0 0 -7 -0.27 0.05
0 0 7 -0.12 0.07
0 0 -7 -0.25 0.05
0 0 -7 -0.23 0.06
0 0 7 -0.28 0.05
0 0 -7 -0.29 0.04
0 0 7 -0.27 0.04
1 0 7 546.78 37.45
1 0 7 541.77 38.73
-1 0 -7 513.79 36.87
-1 0 -7 447.36 36.11
1 0 7 487.58 41.32
-1 0 -7 510.56 37.24
-1 0 -7 488.46 32.76
1 0 7 524.25 37.21
1 0 7 506.85 39.51
1 0 7 580.64 37.42
-1 0 -7 478.63 35.76
-1 0 -7 522.49 34.92
1 0 7 526.63 37.19
-1 0 -7 444.12 35.67
2 0 7 0.15 0.09
2 0 7 0.01 0.06
-2 0 -7 0.05 0.07
2 0 7 0.07 0.07
2 0 7 0.09 0.07
-2 0 -7 0.06 0.05
2 0 7 0.02 0.06
-2 0 -7 0.12 0.07
-2 0 -7 0.13 0.08
2 0 7 0.16 0.07
2 0 7 0.31 0.09
-2 0 -7 0.19 0.11
-2 0 -7 0.02 0.08
-2 0 -7 0.02 0.06
3 0 7 195.12 16.95
3 0 7 228.96 15.29
3 0 7 193.19 15.89
3 0 7 223.51 15.37
-3 0 -7 217.84 14.34
-3 0 -7 214.27 13.47
-3 0 -7 207.05 15.14
3 0 7 177.37 16.36
-3 0 -7 201.98 14.65
-3 0 -7 212.56 14.71
-3 0 -7 202.46 14.85
3 0 7 220.22 16.22
4 0 7 0.02 0.06
4 0 7 0.08 0.1
-4 0 -7 0.13 0.11
-4 0 -7 0.05 0.11
4 0 7 0.03 0.11
-4 0 -7 0.07 0.09
4 0 7 0.11 0.1
4 0 7 0.33 0.12
-4 0 -7 0.18 0.13
4 0 7 0.46 0.17
-4 0 -7 0.16 0.12
-4 0 -7 0.21 0.14
5 0 7 45.81 3.11
5 0 7 51.27 3.64
5 0 7 40.62 3.76
-5 0 -7 54.13 3.56
5 0 7 43.13 3.02
5 0 7 46.4 4.02
5 0 7 42.12 3.84
-5 0 -7 52.62 3.22
-5 0 -7 52.78 3.53
-5 0 -7 47.06 3.47
-6 0 -7 0.21 0.18
6 0 7 0.19 0.18
6 0 7 0.1 0.14
-6 0 -7 0.12 0.14
6 0 7 0.12 0.16
-6 0 -7 0.03 0.2
6 0 7 0.09 0.18
6 0 7 -0.06 0.09
6 0 7 0.03 0.15
6 0 7 0.04 0.16
-6 0 -7 -0.14 0.16
6 0 7 0.02 0.1
-6 0 -7 0.04 0.17
6 0 7 0.05 0.11
-6 0 -7 -0.09 0.14
6 0 7 -0.09 0.13
7 0 7 127.24 8.02
7 0 7 130.35 8.59
7 0 7 118.38 8.18
-7 0 -7 123.85 7.76
-7 0 -7 132.23 7.91
7 0 7 139.4 8.54
-7 0 -7 132.51 7.99
-7 0 -7 121.79 9.1
7 0 7 133.09 8.41
-7 0 -7 133.91 7.77
-8 0 -7 0.15 0.14
-8 0 -7 0.04 0.14
-8 0 -7 0.13 0.12
8 0 7 0.11 0.11
8 0 7 0.08 0.12
8 0 7 0.18 0.13
8 0 7 0.05 0.11
-8 0 -7 0.1 0.13
8 -1 -7 0.12 0.1
8 -1 -7 0.06 0.11
8 -1 -7 0.15 0.11
8 -1 -7 0.02 0.11
8 1 -7 0.1 0.12
8 1 -7 0.51 0.17
-8 1 7 0.25 0.15
-8 1 7 0.06 0.11
-8 1 7 0.01 0.13
8 1 -7 0.18 0.14
8 1 -7 -0.03 0.11
8 1 -7 0.04 0.1
8 1 -7 0.1 0.13
-8 1 7 0.08 0.13
7 -1 -7 21.25 1.62
7 -1 -7 24.74 1.62
7 -1 -7 25.17 1.7
7 -1 -7 25.98 1.62
7 -1 -7 22.4 1.73
7 -1 -7 25.57 1.72
-7 1 7 23.55 1.68
-7 1 7 23.25 1.86
7 1 -7 24.75 1.74
7 1 -7 24.42 1.63
-7 1 7 25.58 1.65
7 1 -7 23.16 1.63
7 1 -7 24.84 1.75
7 1 -7 25.53 1.74
7 1 -7 25.95 1.79
-7 1 7 27.53 1.75
-7 1 7 25.27 1.85
-7 1 7 25.78 1.67
6 -1 -7 2.75 0.32
-6 -1 7 2.18 0.39
-6 -1 7 3.09 0.48
-6 -1 7 2.67 0.45
6 -1 -7 2.14 0.47
-6 -1 7 2.48 0.4
6 -1 -7 2.72 0.33
6 -1 -7 2.71 0.31
6 -1 -7 3.31 0.35
6 -1 -7 2.86 0.46
6 -1 -7 2.58 0.32
6 -1 -7 2.15 0.25
-6 -1 7 1.94 0.36
6 -1 -7 2.64 0.32
-6 1 7 2.99 0.53
-6 1 7 2.79 0.43
6 1 -7 3.27 0.44
6 1 -7 2.73 0.35
-6 1 7 3.45 0.5
-6 1 7 2.52 0.29
6 1 -7 2.02 0.33
6 1 -7 2.41 0.37
6 1 -7 2.89 0.35
6 1 -7 2.4 0.36
-6 1 7 2.37 0.46
6 1 -7 2.54 0.39
6 1 -7 2.09 0.35
5 -1 -7 15.97 1.52
-5 -1 7 15.21 1.34
-5 -1 7 17.6 1.36
-5 -1 7 14.43 1.25
5 -1 -7 16.04 1.43
-5 -1 7 16.07 1.34
5 -1 -7 14.45 1.14
5 -1 -7 15.48 1.13
5 -1 -7 16.99 1.52
-5 -1 7 15.38 1.35
-5 -1 7 16.22 1.35
5 1 -7 14.59 1.01
5 1 -7 15.87 1.18
-5 1 7 15.56 1.35
5 1 -7 15.43 1.16
-5 1 7 18.74 1.44
5 1 -7 17.56 1.19
5 1 -7 17.23 1.15
5 1 -7 16.24 1.17
-5 1 7 15.25 1.37
5 1 -7 16.61 1.12
-5 1 7 15.64 1.31
5 1 -7 15.95 1.19
5 1 -7 15.95 1.15
-4 -1 7 0.55 0.17
-4 -1 7 0.75 0.19
-4 -1 7 0.72 0.19
4 -1 -7 0.6 0.19
-4 -1 7 0.97 0.19
4 -1 -7 0.37 0.15
-4 -1 7 0.52 0.18
4 -1 -7 0.61 0.16
4 -1 -7 0.69 0.21
-4 -1 7 0.51 0.13
-4 1 7 0.54 0.21
4 1 -7 0.52 0.19
4 1 -7 0.53 0.15
4 1 -7 0.49 0.15
4 1 -7 0.41 0.17
-4 1 7 0.54 0.18
4 1 -7 0.73 0.17
4 1 -7 0.34 0.16
4 1 -7 0.52 0.15
4 1 -7 0.51 0.17
4 1 -7 0.89 0.2
-4 1 7 0.45 0.17
4 1 -7 0.47 0.16
4 1 -7 0.75 0.19
-4 1 7 0.41 0.16
4 1 -7 0.49 0.17
-3 -1 7 445.34 31.38
-3 -1 7 434.17 31.99
3 -1 -7 430.85 31.97
3 -1 -7 463.12 35.99
3 -1 -7 422.08 35.35
-3 -1 7 417.91 30.09
-3 -1 7 451.08 31.41
-3 -1 7 373.31 30.43
-3 -1 7 470.63 31.58
3 -1 -7 380.88 29.41
3 -1 -7 405.02 31.39
3 -1 -7 431.3 33.67
-3 1 7 413.53 31.41
-3 1 7 458.38 31.46
-3 1 7 383.23 31.56
-3 1 7 461.56 30.15
-3 1 7 444.14 32.04
2 -1 -7 0.37 0.11
-2 -1 7 0.53 0.14
2 -1 -7 0.54 0.13
-2 -1 7 0.46 0.13
2 -1 -7 0.6 0.14
2 -1 -7 0.54 0.16
-2 -1 7 0.83 0.17
-2 -1 7 0.45 0.09
-2 -1 7 0.59 0.11
2 -1 -7 0.34 0.12
2 -1 -7 0.59 0.14
2 -1 -7 0.55 0.17
-2 -1 7 0.5 0.13
-2 1 7 0.44 0.12
-2 1 7 0.76 0.18
-2 1 7 0.66 0.18
-2 1 7 0.44 0.13
-2 1 7 0.78 0.2
-2 1 7 0.45 0.15
1 -1 -7 344.63 27.4
1 -1 -7 363.23 24.37
-1 -1 7 320.47 24.32
-1 -1 7 285.09 23.59
1 -1 -7 357.78 24.81
1 -1 -7 311.06 21.42
-1 -1 7 336.11 24.46
1 -1 -7 337.31 22.84
-1 -1 7 352.13 24.49
1 -1 -7 348.57 27.9
1 -1 -7 332.04 24.1
-1 -1 7 295.72 23.31
-1 -1 7 354.17 24.34
-1 -1 7 325.46 24.78
-1 -1 7 330.69 25.84
-1 1 7 325.46 24.48
-1 1 7 354.96 24.38
-1 1 7 381.48 24.84
-1 1 7 289.22 25.82
-1 1 7 297.89 24.48
-1 1 7 341.45 24.35
0 -1 7 16.02 1.29
0 -1 7 15.34 1.21
0 -1 7 16.58 1.28
0 -1 7 15.92 1.2
0 -1 -7 16.69 1.15
0 -1 -7 16.53 1.24
0 -1 -7 15.45 1.34
0 -1 -7 15.34 1.16
0 -1 -7 14.86 1.07
0 -1 -7 16.1 1.38
0 -1 -7 15.73 1.23
0 -1 -7 15.09 1.21
0 -1 7 16.06 1.11
0 -1 7 15.74 1.22
0 -1 7 14.73 1.18
0 -1 7 16.01 1.23
0 1 7 14.12 1.28
0 1 7 12.76 1.19
0 1 7 16.65 1.24
0 1 7 14.65 1.23
0 1 7 15.08 1.23
0 1 7 16.67 1.24
-1 -1 -7 32.95 2.34
1 -1 7 34.2 2.64
1 -1 7 31.64 2.57
1 -1 7 32.79 2.43
-1 -1 -7 29.13 2.35
1 -1 7 32.73 2.54
-1 -1 -7 32.19 2.42
-1 -1 -7 32.59 2.15
-1 -1 -7 32.03 2.44
1 -1 7 33.72 2.43
1 -1 7 28.65 2.4
-1 -1 -7 32.15 2.46
1 -1 7 33.11 2.72
-1 -1 -7 34.16 2.3
1 1 7 32.96 2.46
1 1 7 32.26 2.59
1 1 7 35.26 2.45
1 1 7 32.05 2.46
1 1 7 27.49 2.41
2 -1 7 7.61 0.62
2 -1 7 7.33 0.63
2 -1 7 7.75 0.68
-2 -1 -7 7.38 0.55
-2 -1 -7 7.06 0.61
-2 -1 -7 6.98 0.58
2 -1 7 7.87 0.7
2 -1 7 7.8 0.61
-2 -1 -7 6.14 0.58
2 -1 7 7.34 0.66
-2 -1 -7 7.29 0.59
-2 -1 -7 7.18 0.56
2 -1 7 7.34 0.56
-2 -1 -7 6.39 0.57
2 1 7 7.74 0.63
2 1 7 5.94 0.59
-2 1 -7 5.8 0.59
-2 1 -7 6.14 0.57
2 1 7 6.76 0.59
2 1 7 6.72 0.63
-2 1 -7 5.94 0.55
3 -1 7 293.48 23.23
3 -1 7 304.52 24.81
-3 -1 -7 325 21.05
-3 -1 -7 303.94 20.3
3 -1 7 327.11 22.96
-3 -1 -7 275.42 21.61
-3 -1 -7 287.26 22.05
3 -1 7 297.62 24.05
3 -1 7 336.28 22.55
3 -1 7 331.7 21.65
-3 -1 -7 334.3 19.09
-3 -1 -7 310.02 20.78
-3 -1 -7 338.34 21.47
3 -1 7 311.75 24.39
-3 -1 -7 337.57 20.85
3 1 7 282.08 18.5
-3 1 -7 322.95 19.12
-3 1 -7 287.9 21.04
-3 1 -7 276.09 19.95
3 1 7 338.32 23.01
-3 1 -7 267.67 16.8
-3 1 -7 262.93 17.54
-3 1 -7 294.9 20.86
3 1 7 258.21 19.15
-3 1 -7 259.9 17.94
-3 1 -7 254.74 17.45
3 1 7 317.98 21.65
3 1 7 255.23 18.27
3 1 7 259.62 18.08
-3 1 -7 258.63 20.51
3 1 7 272.48 18.8
3 1 7 285.75 22.52
-3 1 -7 267.58 17.79
-4 -1 -7 5.28 0.45
-4 -1 -7 4.74 0.47
4 -1 7 5.43 0.48
-4 -1 -7 4.2 0.46
4 -1 7 4.67 0.53
-4 -1 -7 4.47 0.41
4 -1 7 5.1 0.53
4 -1 7 5.73 0.53
4 -1 7 3.97 0.46
-4 -1 -7 5.09 0.5
-4 -1 -7 5.25 0.5
4 -1 7 4.04 0.52
-4 -1 -7 4.53 0.49
-4 -1 -7 4.83 0.48
4 -1 7 4.82 0.53
4 1 7 4.7 0.44
-4 1 -7 4.31 0.41
4 1 7 4.24 0.48
4 1 7 4.27 0.45
-4 1 -7 4.37 0.42
-4 1 -7 4.72 0.53
4 1 7 4.54 0.42
-4 1 -7 4.8 0.52
4 1 7 4.32 0.49
-4 1 -7 4.57 0.47
-4 1 -7 4.04 0.43
4 1 7 4.1 0.46
-4 1 -7 4.88 0.46
-4 1 -7 4.57 0.46
4 1 7 4.96 0.41
-4 1 -7 5.28 0.44
4 1 7 4.06 0.45
4 1 7 4.45 0.42
-4 1 -7 4.35 0.42
-4 1 -7 4.47 0.41
4 1 7 4.59 0.46
4 1 7 4.36 0.42
4 1 7 5.02 0.53
-5 -1 -7 166.32 13.3
-5 -1 -7 186.54 13.1
-5 -1 -7 177.54 12.93
5 -1 7 184.16 14.03
-5 -1 -7 179.14 11.85
5 -1 7 174.23 14.95
-5 -1 -7 185.41 12.97
5 -1 7 165.06 13.43
-5 -1 -7 161.54 13.69
5 -1 7 184.09 14.45
5 -1 7 174.99 15.15
5 1 7 173.83 13.46
-5 1 -7 193.55 10.89
5 1 7 170.83 14.01
-5 1 -7 181.51 10.44
-5 1 -7 188.99 10.93
-5 1 -7 196.53 13.02
5 1 7 190.4 11.27
5 1 7 198.09 11.53
-5 1 -7 187.29 12.79
5 1 7 171.54 12.04
5 1 7 186.36 11.7
5 1 7 188.58 11.8
5 1 7 192.25 11.37
-5 1 -7 179 13.12
-5 1 -7 198.53 11.11
5 1 7 174.96 11.89
5 1 7 186 11.97
-5 1 -7 193.43 11.2
-5 1 -7 176 12.4
6 1 7 10.09 0.81
-6 1 -7 11.6 0.82
-6 1 -7 9.86 0.87
-6 1 -7 10.49 0.83
6 1 7 10.56 0.81
6 1 7 9.41 0.76
-6 1 -7 11.9 0.81
-6 1 -7 9.24 0.75
6 1 7 10.25 0.8
6 1 7 10.34 0.85
6 1 7 9.12 0.83
-6 1 -7 9.76 0.91
6 1 7 10.2 0.86
7 -1 7 4.98 0.48
7 -1 7 5.65 0.53
7 -1 7 6 0.53
7 -1 7 6.11 0.54
7 -1 7 5.65 0.48
-7 1 -7 5.49 0.56
7 1 7 5.77 0.51
-7 1 -7 5.72 0.51
7 1 7 6.09 0.52
7 1 7 6.15 0.56
7 1 7 6.28 0.56
-7 1 -7 6.22 0.52
7 1 7 6.21 0.53
7 1 7 5.19 0.53
-7 1 -7 6.16 0.6
-7 1 -7 5.85 0.54
8 -1 7 0.2 0.12
-8 -1 -7 0.37 0.15
-8 -1 -7 0.35 0.14
8 -1 7 0.36 0.14
8 -1 7 0.22 0.11
-8 -1 -7 0.31 0.14
8 -1 7 0.62 0.17
-8 -1 -7 0.53 0.17
-8 -1 -7 0.28 0.12
8 -1 7 0.19 0.12
8 1 7 0.31 0.15
-8 1 -7 0.35 0.13
-8 1 -7 0.18 0.15
-8 1 -7 0.54 0.16
-8 1 -7 0.38 0.15
8 1 7 0.3 0.15
8 1 7 0.24 0.12
-8 1 -7 0.22 0.14
8 1 7 0.39 0.13
8 1 7 0.4 0.14
8 -2 -7 1.83 0.19
8 -2 -7 1.55 0.19
8 -2 -7 1.59 0.2
8 2 -7 1.74 0.21
8 2 -7 1.14 0.2
8 2 -7 1.52 0.2
-8 2 7 1.81 0.22
-8 2 7 1.68 0.22
-8 2 7 1.79 0.21
7 -2 -7 44.68 3.04
7 -2 -7 49.1 2.97
7 -2 -7 44.91 3.12
7 -2 -7 49.77 3
7 -2 -7 50.07 3.16
7 2 -7 42.13 3
-7 2 7 45.84 3.37
-7 2 7 53.22 3.08
7 2 -7 50.42 3.21
7 2 -7 49.56 3.29
-7 2 7 48.43 3.13
7 2 -7 46.81 3
7 2 -7 46.9 3.24
-7 2 7 50.11 3.02
7 2 -7 44.26 3.17
-7 2 7 51.09 3.17
7 2 -7 49.76 3.2
6 -2 -7 3.36 0.32
6 -2 -7 3.46 0.37
6 2 -7 3.23 0.45
6 2 -7 3.55 0.41
-6 2 7 4.19 0.48
6 2 -7 3.53 0.43
-6 2 7 4.14 0.48
-6 2 7 3.77 0.49
6 2 -7 3.51 0.43
6 2 -7 3.3 0.35
6 2 -7 3.45 0.41
-6 2 7 3.92 0.44
6 2 -7 3.15 0.39
6 2 -7 3.93 0.48
6 2 -7 3.58 0.44
-6 2 7 3.79 0.43
-6 2 7 3.41 0.36
-5 -2 7 84.79 6.36
-5 -2 7 81.92 6.4
5 -2 -7 72.67 6.77
5 -2 -7 75.19 7.12
-5 -2 7 82.51 6.39
5 -2 -7 72.8 6.43
-5 -2 7 79.75 6.39
5 -2 -7 78.15 7.27
-5 -2 7 76.51 6.45
5 2 -7 90.6 5.58
5 2 -7 80.83 5.38
5 2 -7 84.13 5.46
-5 2 7 93.5 5.27
-5 2 7 88.4 4.92
-5 2 7 91.66 5.34
5 2 -7 80.39 4.82
-5 2 7 86.09 5.88
5 2 -7 86.82 5.54
5 2 -7 92.02 5.55
-5 2 7 68.76 6.54
-5 2 7 95.55 5.52
5 2 -7 91.44 5.71
5 2 -7 92.42 5.65
5 2 -7 90.98 5.26
5 2 -7 79.31 5.37
5 2 -7 83.71 5.3
5 2 -7 88.03 5.28
-5 2 7 81.91 5.19
-5 2 7 96.21 5.49
-4 -2 7 2.77 0.45
4 -2 -7 2.27 0.39
-4 -2 7 2.57 0.37
-4 -2 7 2.5 0.45
4 -2 -7 2.3 0.4
-4 -2 7 2.34 0.41
-4 -2 7 2.36 0.4
4 -2 -7 1.97 0.3
4 -2 -7 2.28 0.44
4 -2 -7 2.26 0.34
4 -2 -7 2.65 0.44
4 2 -7 2.35 0.41
4 2 -7 2.8 0.32
-4 2 7 3.05 0.48
4 2 -7 2.38 0.3
-4 2 7 2.6 0.45
-4 2 7 3.03 0.4
4 2 -7 2.5 0.29
4 2 -7 2.49 0.31
4 2 -7 2.8 0.46
-4 2 7 2.58 0.52
4 2 -7 2.82 0.35
-4 2 7 3.53 0.52
4 2 -7 2.4 0.36
4 2 -7 1.87 0.34
4 2 -7 2.48 0.33
4 2 -7 2.67 0.38
4 2 -7 2.46 0.28
-4 2 7 2.88 0.44
-4 2 7 3.03 0.39
-4 2 7 1.96 0.46
-4 2 7 2.69 0.45
4 2 -7 2.4 0.32
4 2 -7 2.18 0.29
4 2 -7 3.02 0.35
4 2 -7 2.79 0.32
4 2 -7 3.3 0.46
4 2 -7 3.09 0.43
4 2 -7 2.47 0.34
-4 2 7 2.87 0.39
4 2 -7 2.24 0.39
4 2 -7 2.83 0.43
3 -2 -7 13.46 1.2
-3 -2 7 13.8 1.08
3 -2 -7 12.55 0.99
3 -2 -7 12.55 1.11
-3 -2 7 13.64 1
-3 -2 7 12.71 1.06
3 -2 -7 13.05 1.1
3 -2 -7 12.8 1.07
3 -2 -7 11.86 1.03
-3 -2 7 11.99 1.06
3 -2 -7 13.77 1.24
3 2 -7 13.1 0.92
3 2 -7 13.56 0.89
3 2 -7 13.34 0.9
3 2 -7 12.13 0.89
3 2 -7 13.77 1
3 2 -7 11.89 0.83
3 2 -7 13.26 1.03
-3 2 7 11.57 1.15
-3 2 7 11.72 0.95
3 2 -7 12.43 0.93
3 2 -7 12.16 0.93
3 2 -7 13.58 0.96
3 2 -7 12.76 0.85
3 2 -7 11.94 1.02
3 2 -7 12 0.86
-3 2 7 11.49 0.9
3 2 -7 15.82 0.99
3 2 -7 12.9 0.9
3 2 -7 12.86 0.98
3 2 -7 12.46 0.87
3 2 -7 13.84 0.98
-3 2 7 11 0.85
-3 2 7 11.81 0.94
-3 2 7 11.25 0.94
3 2 -7 11.37 0.85
3 2 -7 12.51 0.85
3 2 -7 11.96 0.96
3 2 -7 12.64 0.84
3 2 -7 12.26 0.85
3 2 -7 12.1 1.01
3 2 -7 12.47 0.91
-3 2 7 11.46 0.9
-3 2 7 11.32 0.92
3 2 -7 12.94 0.82
3 2 -7 12.53 0.88
-3 2 7 12.31 0.93
3 2 -7 12.93 0.93
-3 2 7 12.33 1.15
-3 2 7 10.1 1.07
-2 -2 7 11.08 0.93
2 -2 -7 12.12 1.08
2 -2 -7 11.78 0.96
-2 -2 7 11.73 0.94
-2 -2 7 11.28 0.92
2 -2 -7 10.73 0.92
2 -2 -7 11.64 0.94
2 -2 -7 10.61 0.82
2 -2 -7 10.81 0.87
-2 -2 7 11.15 0.91
-2 -2 7 10.49 0.85
2 -2 -7 10.73 1.02
-2 -2 7 10.38 0.91
2 2 -7 11.22 0.81
2 2 -7 11.64 0.85
2 2 -7 11.13 0.8
2 2 -7 10.61 0.87
2 2 -7 10.84 0.79
2 2 -7 10.53 0.76
2 2 -7 10.69 0.81
2 2 -7 11.18 0.85
2 2 -7 11.16 0.89
2 2 -7 11.41 0.84
2 2 -7 11.42 0.77
2 2 -7 11.54 0.9
-2 2 7 9.47 0.82
2 2 -7 10.67 0.78
2 2 -7 10.3 0.74
2 2 -7 11.1 0.77
2 2 -7 11.2 0.73
2 2 -7 11.29 0.8
-2 2 7 9.22 0.94
-2 2 7 10.54 0.8
2 2 -7 10.99 0.75
2 2 -7 10.85 0.74
-2 2 7 9.77 0.79
-2 2 7 9.64 0.78
2 2 -7 11.93 0.79
-2 2 7 9.24 0.89
2 2 -7 10.74 0.83
2 2 -7 10.95 0.76
2 2 -7 10.82 0.74
-2 2 7 10 0.8
2 2 -7 10.96 0.83
2 2 -7 11.02 0.8
2 2 -7 10.56 0.77
2 2 -7 10.71 0.78
2 2 -7 10.78 0.79
2 2 -7 10.58 0.77
2 2 -7 11.7 0.81
2 2 -7 11.87 0.73
2 2 -7 11.18 0.82
2 2 -7 11.51 0.86
2 2 -7 11.77 0.78
-2 2 7 10.95 0.98
-2 2 7 9.66 0.81
2 2 -7 11.29 0.76
2 2 -7 11.39 0.79
2 2 -7 10.62 0.9
2 2 -7 11.4 0.81
-2 2 7 9.65 0.74
2 2 -7 10.41 0.78
2 2 -7 11.87 0.92
-1 -2 7 263.21 19
1 -2 -7 290.48 18.4
-1 -2 7 279.83 19.58
-1 -2 7 262.53 19.92
1 -2 -7 265.07 22.01
-1 -2 7 287.57 19.69
1 -2 -7 301.83 19.97
-1 -2 7 269.48 20.78
-1 -2 7 281.82 19.56
-1 -2 7 291.12 19.55
1 -2 -7 287.55 19.42
-1 -2 7 265.43 20.39
-1 -2 7 287.4 19.67
1 -2 -7 279.57 17.26
1 -2 -7 294.02 22.45
1 -2 -7 290.7 19.62
1 2 -7 261.43 15.08
1 2 -7 288.95 18.61
1 2 -7 260.22 15.17
1 2 -7 268.83 16.72
1 2 -7 255.05 15.2
1 2 -7 276.88 17.01
1 2 -7 265.35 16.16
1 2 -7 269.49 19.18
-1 2 7 234.41 18.92
1 2 -7 263.63 16.53
1 2 -7 273.97 16.98
-1 2 7 232.06 16.05
1 2 -7 255.61 16.1
1 2 -7 256.08 16.25
1 2 -7 262.41 15.22
1 2 -7 268.75 16.48
1 2 -7 282.08 17.52
1 2 -7 266.61 15.21
1 2 -7 264.34 16.66
-1 2 7 247.49 16.75
1 2 -7 271.09 17.37
-1 2 7 235.88 16.57
-1 2 7 232.16 19.68
-1 2 7 246.78 15.1
-1 2 7 267.11 16.68
1 2 -7 268.27 15.77
1 2 -7 273.58 18.91
1 2 -7 268.31 18.94
1 2 -7 264.43 15.8
1 2 -7 269.88 15.95
1 2 -7 268.19 15.24
1 2 -7 264.19 16.73
1 2 -7 267.65 17.33
1 2 -7 267.29 16.94
1 2 -7 260.83 14.85
1 2 -7 275.76 16.15
1 2 -7 267.11 15.95
1 2 -7 253.15 15.87
1 2 -7 267.6 16.35
-1 2 7 238.44 19.18
1 2 -7 269.63 17.11
1 2 -7 270.76 16.56
1 2 -7 254.33 16.73
1 2 -7 267.62 16.04
1 2 -7 263.58 18.04
-1 2 7 263.49 19.6
-1 2 7 240.36 15.95
1 2 -7 263.67 14.85
1 2 -7 265.79 15.13
0 -2 7 16.59 1.33
0 -2 -7 18.26 1.22
0 -2 7 18.3 1.54
0 -2 7 17.1 1.42
0 -2 -7 18.44 1.3
0 -2 7 17.97 1.42
0 -2 7 17.19 1.48
0 -2 7 17.46 1.23
0 -2 7 17.62 1.36
0 -2 7 18.24 1.36
0 -2 -7 18.14 1.33
0 -2 -7 17.99 1.39
0 -2 7 16.71 1.55
0 -2 -7 19.05 1.38
0 -2 -7 16.96 1.53
0 -2 -7 18.56 1.37
0 2 -7 18.2 1.34
0 2 7 15.35 1.35
0 2 -7 17.05 1.13
0 2 -7 17.41 1.33
0 2 -7 17.37 1.18
0 2 -7 16.29 1.08
0 2 -7 16.04 1.15
0 2 -7 17.2 1.16
0 2 7 14.83 1.17
0 2 -7 18.54 1.24
0 2 -7 18.64 1.22
0 2 -7 17.33 1.08
0 2 -7 17.54 1.18
0 2 -7 18.82 1.16
0 2 -7 16.07 1.18
0 2 -7 16.44 1.12
0 2 -7 16.97 1.32
0 2 -7 17 1.12
0 2 -7 17.27 1.1
0 2 7 15.84 1.19
0 2 -7 16.01 1.05
0 2 -7 16.26 1.33
0 2 -7 16.08 1.16
0 2 -7 17.12 1.16
0 2 -7 17.32 1.13
0 2 7 15.46 1.34
0 2 -7 17.83 1.06
0 2 7 14.17 1.2
0 2 -7 17.31 1.14
0 2 7 16.38 1.07
0 2 -7 18.01 1.16
0 2 7 16.39 1.37
0 2 -7 17.27 1.29
0 2 -7 18.21 1.22
0 2 -7 17.96 1.14
0 2 7 16.21 1.14
0 2 -7 17.21 1.07
0 2 7 15.21 1.35
0 2 7 15.16 1.33
0 2 -7 18.63 1.16
0 2 -7 17.84 1.2
0 2 -7 16.45 1.09
0 2 -7 16.67 1.09
0 2 -7 16.56 1.14
0 2 -7 18.4 1.21
0 2 -7 17.52 1.1
0 2 -7 18.4 1.25
0 2 -7 17.54 1.13
0 2 -7 16.84 1.16
0 2 -7 17.29 1.21
1 -2 7 132.92 10.58
-1 -2 -7 128.97 8.85
1 -2 7 132.63 10.22
1 -2 7 127.05 9.55
-1 -2 -7 119.59 9.32
-1 -2 -7 143.4 8.65
-1 -2 -7 142.35 9.13
-1 -2 -7 131.93 8.11
-1 -2 -7 140.81 9.21
1 -2 7 130.08 9.16
1 -2 7 127.61 10.38
1 -2 7 132.94 9.89
-1 -2 -7 128.25 8.95
1 2 7 107.09 7.97
-1 2 -7 116.94 7.15
1 2 7 126.07 7.79
1 2 7 113.61 7.77
-1 2 -7 126.68 7.87
-1 2 -7 121.21 8.88
-1 2 -7 129.77 7.73
-1 2 -7 124.66 7.16
-1 2 -7 125.08 7.44
-1 2 -7 111.51 7.83
1 2 7 114.36 8.9
-1 2 -7 116.34 8.98
-1 2 -7 123.98 7.35
1 2 7 132.95 7.87
-1 2 -7 127.05 7.6
-1 2 -7 121.76 7.09
-1 2 -7 115.99 7.13
-1 2 -7 121.24 7.41
-1 2 -7 125.05 7.59
-1 2 -7 117.31 7.81
1 2 7 125.03 8.9
-1 2 -7 124.62 7.65
-1 2 -7 123.26 7
1 2 7 122.51 9.02
-1 2 -7 118.54 7.16
-1 2 -7 113.71 8.85
-1 2 -7 131.8 8.49
1 2 7 115.77 8.15
-1 2 -7 115.14 7.06
-1 2 -7 125.33 6.96
1 2 7 119.55 9.24
-1 2 -7 120.31 7.48
1 2 7 128.16 7.54
-1 2 -7 116.38 7.51
-1 2 -7 129.1 8.76
-1 2 -7 137.47 7.58
-1 2 -7 116.16 7.75
-1 2 -7 126.6 7.49
-1 2 -7 119.59 7.11
2 -2 7 4.47 0.54
-2 -2 -7 4.66 0.47
-2 -2 -7 4.65 0.42
-2 -2 -7 4.6 0.43
-2 -2 -7 4.97 0.47
2 -2 7 4.69 0.51
2 -2 7 4.58 0.47
-2 -2 -7 4.59 0.46
-2 -2 -7 4.16 0.42
2 -2 7 4.22 0.5
2 -2 7 4.83 0.54
-2 2 -7 4.18 0.39
-2 2 -7 3.98 0.34
-2 2 -7 3.89 0.38
2 2 7 4.5 0.45
-2 2 -7 4.33 0.47
2 2 7 4.21 0.42
-2 2 -7 4.46 0.42
-2 2 -7 3.77 0.38
-2 2 -7 4.49 0.46
-2 2 -7 4.09 0.43
2 2 7 4.92 0.47
2 2 7 4.45 0.39
-2 2 -7 4.18 0.41
-2 2 -7 4.06 0.42
-2 2 -7 4.59 0.39
2 2 7 4.28 0.41
-2 2 -7 4.45 0.42
2 2 7 4.77 0.47
-2 2 -7 4.28 0.4
2 2 7 3.89 0.39
2 2 7 4.41 0.4
-2 2 -7 4.22 0.44
2 2 7 3.77 0.4
-2 2 -7 4.22 0.4
2 2 7 4.35 0.42
-3 -2 -7 34.18 2.54
-3 -2 -7 33.87 2.5
-3 -2 -7 37.14 2.53
3 -2 7 35.28 3.01
-3 -2 -7 32.67 2.56
3 -2 7 35.3 2.88
3 -2 7 32.71 2.66
-3 -2 -7 30.47 2.39
3 -2 7 36.58 2.95
3 -2 7 35.57 2.68
-3 -2 -7 34.2 2.3
3 -2 7 37.18 2.81
3 2 7 31.46 2.28
3 2 7 33.16 2.21
3 2 7 28.61 2.27
-3 2 -7 33.8 2.14
-3 2 -7 34.39 2.41
-3 2 -7 32.97 2.17
3 2 7 35.83 2.55
3 2 7 31.1 2.19
-3 2 -7 31.26 2.04
3 2 7 34.56 2.52
-3 2 -7 33 2.1
-3 2 -7 32.85 2.5
3 2 7 32.87 2.49
-3 2 -7 31.4 1.97
-3 2 -7 32.48 2.22
3 2 7 30.57 2.24
3 2 7 34.36 2.31
-3 2 -7 32.32 2.14
-3 2 -7 32.67 2.19
-3 2 -7 31.7 2.19
-4 -2 -7 4.97 0.55
4 -2 7 4.07 0.6
4 -2 7 4.42 0.57
-4 -2 -7 4.79 0.55
-4 -2 -7 4.67 0.54
4 -2 7 4.16 0.54
4 -2 7 5.01 0.59
-4 -2 -7 5.27 0.49
4 -2 7 3.98 0.54
-4 -2 -7 4.52 0.51
-4 -2 -7 4.46 0.56
4 -2 7 4.46 0.6
4 2 7 4.87 0.48
4 2 7 4.96 0.51
4 2 7 5 0.51
4 2 7 5.56 0.52
-4 2 -7 4.88 0.51
-4 2 -7 5.41 0.47
-4 2 -7 4.92 0.46
4 2 7 4.06 0.51
4 2 7 4.8 0.51
4 2 7 4.99 0.47
-4 2 -7 4.72 0.48
-4 2 -7 4.81 0.56
4 2 7 4.31 0.53
-4 2 -7 5.1 0.52
-4 2 -7 4.98 0.52
4 2 7 4.77 0.51
-4 2 -7 4.96 0.52
-4 2 -7 5.02 0.53
5 2 7 74.67 5.41
-5 2 -7 88.84 4.98
5 2 7 79.85 5.12
-5 2 -7 76.18 4.92
5 2 7 85.41 5.24
5 2 7 77.14 5.35
-5 2 -7 84.14 5.1
-5 2 -7 82.63 5.81
-5 2 -7 85.38 5.05
5 2 7 76.2 5.82
5 2 7 78.78 5.36
5 2 7 84.14 5.3
-5 2 -7 77.78 5.18
-5 2 -7 77.11 5.6
5 2 7 78.4 5.12
-6 2 -7 0.54 0.23
-6 2 -7 0.6 0.21
6 2 7 0.79 0.21
-6 2 -7 0.69 0.22
-6 2 -7 1.04 0.28
6 2 7 0.88 0.22
-6 2 -7 0.62 0.23
6 2 7 1.03 0.31
6 2 7 1.21 0.29
6 2 7 0.8 0.18
6 2 7 0.51 0.18
-6 2 -7 0.94 0.28
6 2 7 0.86 0.24
7 -2 7 52.71 3.57
7 -2 7 52.59 3.53
-7 2 -7 47.78 3.48
7 2 7 54.99 3.65
-7 2 -7 60.31 3.45
7 2 7 56.68 3.62
-7 2 -7 53.25 3.32
7 2 7 58.28 3.46
-7 2 -7 50.05 3.78
7 2 7 55.89 3.52
7 2 7 52.91 3.56
-7 2 -7 57.45 3.94
6 -3 -7 18.54 1.39
6 -3 -7 19.8 1.23
6 3 -7 20.33 1.5
-6 3 7 21.37 1.44
6 3 -7 19.31 1.38
-6 3 7 22.9 1.43
6 3 -7 19.34 1.36
-6 3 7 22.84 1.41
-6 3 7 23 1.45
6 3 -7 22.12 1.48
6 3 -7 20.16 1.38
6 3 -7 21.71 1.47
6 3 -7 21.48 1.48
6 3 -7 19.38 1.37
-6 3 7 20.8 1.28
6 3 -7 21.03 1.44
5 3 -7 4.1 0.41
5 3 -7 4.67 0.49
5 3 -7 4.13 0.44
5 3 -7 3.94 0.41
-5 3 7 4.59 0.5
5 3 -7 4.05 0.46
5 3 -7 3.99 0.41
5 3 -7 4.79 0.53
5 3 -7 4.13 0.48
5 3 -7 4.68 0.49
-5 3 7 4.46 0.43
5 3 -7 4.34 0.4
5 3 -7 3.65 0.39
-5 3 7 4.56 0.43
5 3 -7 4.58 0.5
-5 3 7 4.82 0.52
-5 3 7 4.78 0.51
-5 3 7 4.34 0.5
5 3 -7 3.7 0.47
4 3 -7 5.55 0.53
-4 3 7 4.99 0.5
-4 3 7 4.79 0.58
-4 3 7 4.49 0.49
-4 3 7 5.05 0.57
4 3 -7 5.11 0.48
4 3 -7 4.88 0.55
4 3 -7 5.79 0.51
4 3 -7 5.65 0.6
4 3 -7 4.32 0.47
4 3 -7 4.72 0.49
4 3 -7 5.3 0.49
-4 3 7 5.86 0.58
4 3 -7 5.32 0.57
4 3 -7 5.02 0.5
4 3 -7 5.32 0.47
4 3 -7 4.98 0.58
4 3 -7 4.7 0.56
4 3 -7 5.25 0.5
4 3 -7 4.92 0.52
-4 3 7 4.68 0.57
4 3 -7 5.57 0.58
-4 3 7 3.84 0.46
4 3 -7 5.8 0.57
-3 3 7 86.29 5.95
3 3 -7 100.19 6.16
-3 3 7 91.09 5.76
-3 3 7 88.4 5.43
3 3 -7 95.31 5.82
3 3 -7 95.87 6.73
-3 3 7 84.61 5.79
3 3 -7 87.65 5.4
-3 3 7 87.69 5.98
3 3 -7 92.38 5.94
3 3 -7 95.4 6.07
3 3 -7 87.92 5.42
3 3 -7 98.36 6.27
3 3 -7 96.54 6.72
3 3 -7 90.8 5.62
3 3 -7 98.15 6.21
3 3 -7 90.76 5.81
-3 3 7 79.99 5.73
3 3 -7 97.49 5.76
-3 3 7 86.92 6.01
3 3 -7 104.13 5.97
-3 3 7 81.58 5.87
3 3 -7 87.4 5.34
3 3 -7 94.47 5.89
3 3 -7 98.78 6.82
3 3 -7 97.95 6.11
3 3 -7 96.16 6.05
3 3 -7 94.02 5.44
3 3 -7 99.58 5.88
3 3 -7 95.1 6.1
3 3 -7 90.05 5.45
2 -3 -7 0.47 0.24
2 -3 -7 0.89 0.28
2 -3 -7 0.6 0.27
2 -3 -7 0.61 0.28
2 -3 -7 0.64 0.25
2 -3 -7 0.84 0.29
2 3 -7 1.18 0.24
2 3 -7 1.21 0.28
2 3 -7 1.32 0.34
2 3 -7 0.76 0.26
2 3 -7 1.3 0.29
2 3 -7 1.09 0.32
2 3 -7 1.14 0.27
-2 3 7 1.19 0.32
2 3 -7 1.02 0.26
2 3 -7 1.05 0.24
2 3 -7 2.15 0.4
2 3 -7 1.25 0.29
2 3 -7 0.65 0.25
2 3 -7 1.42 0.3
-2 3 7 0.84 0.28
2 3 -7 1.56 0.37
2 3 -7 0.94 0.26
2 3 -7 1.19 0.27
2 3 -7 1.38 0.27
2 3 -7 1.42 0.32
2 3 -7 1.13 0.29
2 3 -7 1.1 0.31
2 3 -7 1.13 0.26
-2 3 7 0.88 0.26
2 3 -7 0.91 0.24
-2 3 7 0.78 0.25
2 3 -7 0.76 0.25
2 3 -7 1.22 0.28
2 3 -7 1 0.27
-2 3 7 0.98 0.28
2 3 -7 1.12 0.24
2 3 -7 0.79 0.23
-2 3 7 0.93 0.26
2 3 -7 1.12 0.26
2 3 -7 1.03 0.31
2 3 -7 1.04 0.26
-2 3 7 1.05 0.31
-2 3 7 1.28 0.29
2 3 -7 1 0.26
2 3 -7 2.82 0.4
2 3 -7 1.4 0.37
2 3 -7 1.36 0.34
2 3 -7 1.4 0.25
2 3 -7 1.13 0.27
2 3 -7 1.07 0.32
2 3 -7 1.19 0.27
2 3 -7 0.85 0.27
1 -3 -7 17.5 1.47
1 -3 -7 17.16 1.56
1 -3 -7 17.11 1.54
1 -3 -7 17.31 1.39
1 -3 -7 18.92 1.53
1 -3 -7 16.33 1.56
1 3 -7 18.02 1.3
1 3 -7 18.59 1.27
1 3 -7 19.27 1.31
1 3 -7 21.57 1.54
1 3 -7 19.21 1.27
1 3 -7 19.2 1.38
1 3 -7 17.88 1.48
1 3 -7 19.89 1.33
-1 3 7 15.61 1.49
-1 3 7 15.66 1.49
1 3 -7 20.18 1.36
1 3 -7 19.06 1.31
-1 3 7 15.9 1.31
1 3 -7 19.27 1.29
1 3 -7 19.11 1.49
1 3 -7 18.52 1.31
1 3 -7 19.96 1.39
1 3 -7 19.15 1.31
1 3 -7 19.04 1.25
1 3 -7 18.03 1.33
-1 3 7 18.73 1.37
-1 3 7 18.44 1.36
1 3 -7 19.58 1.26
1 3 -7 19.07 1.22
-1 3 7 17.83 1.31
1 3 -7 19.59 1.33
1 3 -7 18.86 1.45
1 3 -7 18.3 1.37
1 3 -7 19.9 1.32
1 3 -7 19.3 1.29
1 3 -7 19.03 1.26
1 3 -7 18.38 1.19
1 3 -7 18.66 1.25
1 3 -7 19.32 1.41
-1 3 7 17.71 1.23
1 3 -7 19.04 1.37
1 3 -7 17.8 1.29
1 3 -7 19.05 1.3
1 3 -7 20.71 1.37
1 3 -7 18.25 1.29
1 3 -7 18.88 1.27
1 3 -7 18.27 1.25
1 3 -7 17.45 1.32
1 3 -7 19.24 1.22
-1 3 7 18.22 1.28
1 3 -7 19 1.51
1 3 -7 20.32 1.43
0 -3 -7 23.78 1.85
0 -3 -7 23.81 1.95
0 -3 -7 21.35 1.94
0 -3 7 19.9 1.92
0 -3 -7 23.84 1.75
0 -3 -7 22.94 1.91
0 -3 7 19.37 1.82
0 3 -7 26.87 1.63
0 3 -7 25.4 1.56
0 3 -7 25.55 1.57
0 3 -7 25.51 1.62
0 3 -7 25.52 1.64
0 3 -7 24.37 1.87
0 3 -7 23.97 1.64
0 3 -7 27 1.62
0 3 7 24.18 1.67
0 3 -7 25.88 1.65
0 3 -7 25.61 1.67
0 3 -7 25.96 1.65
0 3 7 20.11 1.56
0 3 -7 24.7 1.7
0 3 -7 24.9 1.57
0 3 -7 23.72 1.59
0 3 7 24.12 1.53
0 3 7 20.96 1.92
0 3 7 25.98 1.72
0 3 7 20.72 1.7
0 3 7 24.55 1.68
0 3 -7 23.99 1.88
0 3 -7 26.91 1.62
0 3 -7 25.73 1.54
0 3 -7 24.48 1.65
0 3 -7 24.48 1.69
0 3 -7 24.72 1.9
0 3 7 24.26 1.63
0 3 7 22.08 1.89
0 3 -7 24.98 1.91
0 3 -7 25.1 1.67
0 3 -7 24.35 1.72
0 3 -7 24.38 1.82
0 3 -7 26.42 1.55
0 3 -7 24.51 1.66
0 3 -7 25.21 1.55
0 3 7 22.47 1.9
0 3 -7 24.45 1.5
0 3 -7 26.05 1.57
-1 -3 -7 2.83 0.48
-1 -3 -7 2.48 0.42
1 -3 7 2.95 0.45
-1 -3 -7 2.87 0.38
1 -3 7 2.17 0.43
1 -3 7 1.78 0.42
-1 -3 -7 3 0.44
1 -3 7 2.37 0.5
-1 3 -7 3.26 0.41
-1 3 -7 3.63 0.45
-1 3 -7 3.31 0.36
-1 3 -7 2.83 0.38
-1 3 -7 2.62 0.46
-1 3 -7 3.29 0.47
1 3 7 3.15 0.36
-1 3 -7 3.21 0.44
-1 3 -7 2.73 0.33
-1 3 -7 2.93 0.38
1 3 7 2.92 0.38
-1 3 -7 2.85 0.36
-1 3 -7 3.2 0.42
1 3 7 3.69 0.45
-1 3 -7 2.56 0.32
-1 3 -7 4.35 0.48
1 3 7 2.61 0.36
-1 3 -7 3.32 0.37
1 3 7 2.45 0.37
-1 3 -7 3.16 0.39
-1 3 -7 2.76 0.46
-1 3 -7 2.94 0.31
-1 3 -7 3.2 0.47
1 3 7 3.2 0.42
-1 3 -7 3.16 0.38
-1 3 -7 2.43 0.32
1 3 7 3.07 0.37
-1 3 -7 3.85 0.5
1 3 7 2.77 0.41
-1 3 -7 4.01 0.39
1 3 7 2.96 0.34
-2 -3 -7 0.69 0.28
-2 -3 -7 0.46 0.26
2 -3 7 0.6 0.27
2 -3 7 0.55 0.27
2 -3 7 0.49 0.25
-2 -3 -7 0.52 0.24
-2 -3 -7 0.57 0.27
-2 -3 -7 0.89 0.28
-2 -3 -7 0.63 0.28
2 -3 7 0.46 0.23
2 -3 7 0.4 0.27
-2 3 -7 0.81 0.32
2 3 7 0.69 0.23
-2 3 -7 1.17 0.29
2 3 7 0.68 0.22
-2 3 -7 1.04 0.29
2 3 7 0.84 0.26
-2 3 -7 0.7 0.24
-2 3 -7 0.6 0.18
2 3 7 0.82 0.26
2 3 7 0.05 0.17
2 3 7 0.7 0.22
-2 3 -7 0.8 0.25
2 3 7 0.7 0.19
2 3 7 0.64 0.19
-2 3 -7 0.5 0.2
2 3 7 0.65 0.24
-2 3 -7 0.99 0.24
2 3 7 0.81 0.23
-2 3 -7 0.46 0.27
-2 3 -7 1.08 0.31
-2 3 -7 0.51 0.18
-2 3 -7 0.77 0.25
-2 3 -7 0.67 0.22
-2 3 -7 0.85 0.27
2 3 7 0.89 0.24
-2 3 -7 0.87 0.23
3 3 7 36.75 2.64
-3 3 -7 37.73 2.53
-3 3 -7 37.61 2.46
-3 3 -7 39.71 2.57
3 3 7 40.05 2.88
3 3 7 40.07 2.91
-3 3 -7 38.57 2.55
-3 3 -7 38.41 2.91
3 3 7 37.65 2.55
3 3 7 40.15 2.94
-3 3 -7 37.21 2.47
-3 3 -7 34.91 2.32
-3 3 -7 37.46 2.42
-3 3 -7 38.68 2.49
3 3 7 38.36 2.5
-3 3 -7 38.23 2.79
3 3 7 35.72 2.59
3 3 7 38.42 2.67
4 3 7 0.25 0.17
4 3 7 0.53 0.21
4 3 7 0.47 0.24
-4 3 -7 0.38 0.23
4 3 7 -0.23 0.19
4 3 7 0.33 0.21
4 3 7 0.42 0.19
-4 3 -7 0.45 0.21
-4 3 -7 0.37 0.24
-4 3 -7 0.59 0.24
-4 3 -7 0.26 0.16
4 3 7 0.69 0.22
4 3 7 0.5 0.24
-4 3 -7 0.39 0.26
-4 3 -7 0.04 0.19
-4 3 -7 0.88 0.23
4 3 7 0.46 0.2
-4 3 -7 0.27 0.23
-5 3 -7 33.93 2.25
5 3 7 36.43 2.33
5 3 7 36.81 2.63
-5 3 -7 34.22 2.35
5 3 7 37.14 2.43
-5 3 -7 33.29 2.26
5 3 7 34.63 2.39
-5 3 -7 35.96 2.67
5 3 7 36.54 2.43
5 3 7 33.19 2.33
-5 3 -7 34.89 2.55
-5 3 -7 34.4 2.25
-5 3 -7 38.13 2.34
5 3 7 33.22 2.42
6 3 7 2.07 0.25
-6 3 -7 2.42 0.33
-6 3 -7 2.54 0.33
6 3 7 2.26 0.32
6 3 7 2.09 0.26
6 3 7 2.44 0.28
-6 3 -7 2.35 0.28
-6 3 -7 1.93 0.3
6 3 7 2.34 0.29
-6 3 -7 1.9 0.3
6 3 7 2.32 0.28
-4 4 7 17.48 1.15
-4 4 7 18.33 1.11
-4 4 7 14.51 1.15
-4 4 7 18.49 1.18
-4 4 7 18.71 1.24
-3 4 7 2.01 0.32
-3 4 7 3.32 0.43
-3 4 7 2.96 0.42
-3 4 7 2.85 0.32
-3 4 7 2.69 0.33
-3 4 7 2.63 0.36
-2 4 7 2.41 0.35
-2 4 7 2.18 0.34
-2 4 7 2.04 0.36
-2 4 7 1.68 0.32
-2 4 7 2.34 0.37
-2 4 7 2.25 0.32
-2 4 7 1.78 0.31
-1 4 7 19.17 1.53
-1 4 7 16.35 1.36
1 4 -7 20.69 1.3
1 4 -7 19.31 1.21
-1 4 7 17.66 1.24
1 4 -7 19.26 1.35
-1 4 7 17.31 1.26
1 4 -7 18.31 1.29
1 4 -7 21.19 1.35
1 4 -7 20.23 1.36
-1 4 7 19.66 1.38
1 4 -7 21.2 1.35
-1 4 7 15.33 1.5
1 4 -7 21.1 1.32
-1 4 7 18.64 1.35
1 4 -7 19.89 1.46
-1 4 7 18.56 1.33
0 4 -7 0.58 0.22
0 4 -7 0.64 0.24
0 4 7 0.59 0.2
0 4 7 0.66 0.19
0 4 7 0.72 0.25
0 4 7 0.67 0.24
0 4 -7 0.83 0.22
0 4 -7 0.91 0.27
0 4 7 0.69 0.24
0 4 7 0.49 0.23
0 4 -7 0.67 0.2
0 4 -7 0.66 0.23
0 4 -7 0.59 0.21
0 4 -7 0.73 0.24
0 4 -7 0.73 0.31
0 4 7 0.63 0.21
0 4 -7 0.71 0.28
0 4 -7 1.07 0.23
0 4 -7 0.67 0.24
0 4 -7 0.61 0.19
0 4 7 0.42 0.2
-1 4 -7 61.85 4.01
1 4 7 56.84 4.26
-1 4 -7 55.38 3.6
-1 4 -7 50.35 3.31
-1 4 -7 55.8 3.54
-1 4 -7 61.41 3.68
1 4 7 51.69 3.29
-1 4 -7 58.18 3.52
-1 4 -7 52.62 4.13
-1 4 -7 56.45 3.52
1 4 7 57.31 3.68
-1 4 -7 61.03 3.71
1 4 7 59.42 3.72
-1 4 -7 53.39 3.56
1 4 7 61.51 4.22
-1 4 -7 59.54 3.53
1 4 7 55.16 3.54
1 4 7 56.16 4.2
-1 4 -7 58.92 3.63
-1 4 -7 53.39 3.67
-2 4 -7 19.63 1.32
-2 4 -7 19.19 1.24
-2 4 -7 21.46 1.38
-2 4 -7 21.12 1.42
-2 4 -7 20.49 1.36
-2 4 -7 19.89 1.6
2 4 7 17.25 1.46
-2 4 -7 21.1 1.41
2 4 7 17.71 1.39
2 4 7 20.95 1.62
2 4 7 22.02 1.4
2 4 7 21.78 1.4
-2 4 -7 18.45 1.35
-2 4 -7 22.74 1.55
-2 4 -7 20.8 1.33
2 4 7 16.59 1.4
-2 4 -7 17.87 1.36
2 4 7 22.9 1.62
2 4 7 21.42 1.64
-2 4 -7 19.16 1.38
3 4 7 4.21 0.42
3 4 7 3.74 0.42
3 4 7 2.47 0.38
-3 4 -7 3.2 0.45
-3 4 -7 3.93 0.45
3 4 7 3.24 0.39
3 4 7 4.77 0.46
3 4 7 3.89 0.36
-3 4 -7 3.54 0.39
-3 4 -7 3.86 0.37
3 4 7 3.91 0.45
-3 4 -7 3.85 0.35
-3 4 -7 3.64 0.39
-3 4 -7 3.27 0.36
3 4 7 3.69 0.4
-3 4 -7 4.01 0.42
-4 4 -7 1.21 0.24
4 4 7 1.4 0.23
-4 4 -7 1.55 0.22
-4 4 -7 1.1 0.25
-4 4 -7 2.01 0.25
4 4 7 1.64 0.27
4 4 7 2.01 0.26
-4 4 -7 1.53 0.27
4 4 7 1.76 0.26
8 0 -8 39.43 2.39
8 0 -8 36.04 2.23
-8 0 8 34.09 2.22
8 0 -8 34.8 2.24
8 0 -8 38.55 2.38
-8 0 8 31.71 2.56
8 0 -8 34.42 2.43
7 0 -8 0.1 0.12
7 0 -8 -0.03 0.11
7 0 -8 0.14 0.15
7 0 -8 0.11 0.14
7 0 -8 0.1 0.14
7 0 -8 0.07 0.13
6 0 -8 32.94 2.1
-6 0 8 37.48 2.88
-6 0 8 33.8 2.8
6 0 -8 39.07 2.44
6 0 -8 32.17 3.14
6 0 -8 39.7 2.33
6 0 -8 37.5 2.49
6 0 -8 39.91 2.31
6 0 -8 38.21 2.44
-6 0 8 35.6 2.83
-6 0 8 33.94 2.69
6 0 -8 38.19 2.36
-6 0 8 29.63 2.78
5 0 -8 0.18 0.13
5 0 -8 0.12 0.12
5 0 -8 0.05 0.11
5 0 -8 -0.03 0.14
5 0 -8 0.16 0.14
5 0 -8 0.05 0.14
5 0 -8 0.08 0.11
-5 0 8 0.19 0.14
5 0 -8 0.04 0.11
-5 0 8 0.22 0.14
5 0 -8 -0.03 0.1
5 0 -8 0.12 0.1
-5 0 8 0.03 0.09
-5 0 8 0.08 0.11
5 0 -8 0.34 0.14
-5 0 8 0.33 0.16
-5 0 8 0.13 0.14
4 0 -8 139.75 10.27
-4 0 8 169.17 11.54
4 0 -8 157.12 13.65
-4 0 8 175.52 11.43
4 0 -8 165.3 12.8
-4 0 8 181.24 11.96
-4 0 8 184.96 12.17
4 0 -8 146.81 9.2
4 0 -8 154.71 9.8
4 0 -8 147.68 9.01
4 0 -8 153.11 10
4 0 -8 176.86 13.44
-4 0 8 164.9 11.98
4 0 -8 146.12 10.29
-4 0 8 178.38 12
-4 0 8 177.37 11.94
4 0 -8 150.68 9.68
4 0 -8 140.07 10.61
-3 0 8 -0.01 0.07
-3 0 8 0.01 0.06
3 0 -8 0.21 0.11
-3 0 8 -0.01 0.07
-3 0 8 0.14 0.09
3 0 -8 -0.01 0.05
3 0 -8 0.05 0.09
3 0 -8 0.05 0.09
3 0 -8 -0.03 0.05
-3 0 8 0.15 0.07
-3 0 8 0.08 0.08
-3 0 8 0 0.07
-2 0 8 292 20.42
2 0 -8 317.29 24.01
-2 0 8 283.4 21.71
2 0 -8 285.49 24.42
2 0 -8 287.64 21.7
-2 0 8 297.91 21.43
-2 0 8 286.9 21.31
-2 0 8 299.45 21.32
2 0 -8 267.46 21.31
-2 0 8 284.58 22.62
-2 0 8 292.64 21.44
-1 0 8 0.01 0.06
1 0 -8 -0.08 0.05
-1 0 8 0.02 0.07
-1 0 8 -0.05 0.05
1 0 -8 -0.04 0.05
-1 0 8 -0.01 0.05
1 0 -8 -0.01 0.04
1 0 -8 -0.07 0.05
-1 0 8 -0.01 0.06
1 0 -8 -0.04 0.06
-1 0 8 -0.08 0.05
-1 0 8 -0.08 0.05
1 0 -8 -0.09 0.05
0 0 8 211.18 13.85
0 0 8 182.57 14.42
0 0 8 174.91 13.85
0 0 8 186.13 12.58
0 0 -8 191.01 13.01
0 0 -8 176.7 13.73
0 0 8 188.83 13.88
0 0 -8 194.74 14.13
0 0 8 181.93 14.71
0 0 8 199.52 13.85
0 0 8 211.27 13.96
0 0 -8 159.95 13.29
0 0 -8 175.59 12.19
0 0 8 203.56 13.94
0 0 -8 196.43 13.88
1 0 8 0.08 0.12
1 0 8 -0.19 0.08
-1 0 -8 -0.36 0.06
-1 0 -8 -0.4 0.07
1 0 8 -0.13 0.08
-1 0 -8 -0.33 0.07
1 0 8 -0.36 0.06
-1 0 -8 -0.38 0.04
-1 0 -8 -0.25 0.07
-1 0 -8 -0.34 0.07
1 0 8 0.02 0.1
1 0 8 -0.29 0.06
-1 0 -8 -0.41 0.05
2 0 8 204.03 13.37
-2 0 -8 160.16 12.78
-2 0 -8 182.13 12.84
2 0 8 187.82 13.41
2 0 8 162.11 14.81
2 0 8 165.05 14.3
-2 0 -8 176.92 12.96
2 0 8 161.02 15
-2 0 -8 177.5 12.53
2 0 8 180.3 13.9
-2 0 -8 190.81 11.77
2 0 8 205.71 13.44
-2 0 -8 186.02 13.24
2 0 8 204.41 14.19
-3 0 -8 0.03 0.09
3 0 8 0.2 0.1
3 0 8 0.18 0.09
-3 0 -8 0.02 0.06
-3 0 -8 0.07 0.09
-3 0 -8 0.09 0.13
-3 0 -8 0.02 0.09
3 0 8 0.64 0.15
-3 0 -8 -0.01 0.09
3 0 8 0.5 0.16
3 0 8 0.02 0.07
-3 0 -8 0.11 0.1
3 0 8 0.14 0.1
-4 0 -8 283.65 18.7
4 0 8 239.73 21.53
4 0 8 224.14 20.77
4 0 8 273.82 20.22
4 0 8 284.31 20.61
4 0 8 277.96 19.42
-4 0 -8 273.86 18.87
-4 0 -8 280.06 17.11
-4 0 -8 273.96 19.24
-4 0 -8 230.5 18.59
-5 0 -8 0.05 0.13
5 0 8 0.07 0.17
-5 0 -8 0.05 0.15
-5 0 -8 -0.14 0.15
5 0 8 -0.05 0.12
5 0 8 0.09 0.15
-5 0 -8 -0.04 0.14
-5 0 -8 -0.16 0.12
5 0 8 0.02 0.1
5 0 8 0.14 0.1
-5 0 -8 0.08 0.14
5 0 8 0 0.16
-6 0 -8 33.62 2.11
6 0 8 37.17 2.2
6 0 8 35.44 2.32
6 0 8 31.55 2.2
6 0 8 31.14 2.3
6 0 8 35.34 2.29
-6 0 -8 30.46 2.44
-6 0 -8 30.74 1.99
-6 0 -8 32.78 2.16
6 0 8 31.77 2.22
-7 0 -8 0.37 0.18
-7 0 -8 0.22 0.16
7 0 8 0.21 0.14
7 0 8 0.07 0.15
7 0 8 0.25 0.12
-7 0 -8 0.21 0.15
-7 0 -8 0.52 0.18
-7 0 -8 0.29 0.15
7 0 8 0.16 0.13
7 0 8 0.19 0.12
-7 0 -8 0.02 0.14
7 0 8 -0.12 0.1
8 0 8 5.68 0.46
8 0 8 5.41 0.48
8 0 8 6.04 0.5
8 0 8 6.22 0.49
-8 0 -8 6.17 0.46
-8 0 -8 5.71 0.46
-8 0 -8 5.88 0.48
-8 0 -8 5.35 0.51
8 -1 -8 2.84 0.28
8 -1 -8 3.7 0.32
8 -1 -8 2.33 0.27
8 -1 -8 2.16 0.25
8 -1 -8 2.66 0.27
8 1 -8 2.99 0.32
8 1 -8 2.14 0.27
-8 1 8 2.6 0.31
8 1 -8 2.71 0.3
8 1 -8 2.02 0.27
-8 1 8 2.75 0.31
-8 1 8 2.44 0.28
8 1 -8 2.64 0.29
-8 1 8 2.56 0.31
-8 1 8 2.89 0.32
8 1 -8 2.96 0.32
7 -1 -8 0.02 0.12
7 -1 -8 0.13 0.13
7 -1 -8 0.25 0.13
7 -1 -8 0.22 0.13
7 -1 -8 0.13 0.12
7 1 -8 0.22 0.15
-7 1 8 0.32 0.18
-7 1 8 0.17 0.16
-7 1 8 0.36 0.21
7 1 -8 0.28 0.18
7 1 -8 0.13 0.15
-7 1 8 0.47 0.22
7 1 -8 0.19 0.16
7 1 -8 0.13 0.14
7 1 -8 0.28 0.15
7 1 -8 0.34 0.18
-7 1 8 0.29 0.19
6 -1 -8 94.04 5.38
6 -1 -8 91.31 5.54
6 -1 -8 81.97 5.86
6 -1 -8 93.6 5.72
6 -1 -8 77.57 4.96
6 -1 -8 93.69 5.45
6 -1 -8 88.63 5.68
-6 1 8 87.73 6.26
6 1 -8 90.2 5.41
6 1 -8 88.12 5.85
6 1 -8 85.95 5.57
6 1 -8 88.09 5.91
6 1 -8 84.03 5.72
-6 1 8 83.73 5.08
6 1 -8 89.91 5.75
-6 1 8 91.72 6.11
6 1 -8 92.56 5.48
6 1 -8 81.21 5.73
-5 -1 8 0.51 0.22
5 -1 -8 0.08 0.1
5 -1 -8 0.15 0.16
5 -1 -8 0.19 0.15
5 -1 -8 0.21 0.12
5 -1 -8 0.27 0.14
5 -1 -8 0.23 0.15
-5 -1 8 0.35 0.15
-5 -1 8 0.01 0.11
-5 -1 8 0.32 0.18
-5 -1 8 0.27 0.15
5 -1 -8 0.16 0.15
5 -1 -8 0.32 0.19
-5 -1 8 0.22 0.16
5 1 -8 0.08 0.13
5 1 -8 0.31 0.17
5 1 -8 0.25 0.19
-5 1 8 0.25 0.19
5 1 -8 0.27 0.17
-5 1 8 0.1 0.16
5 1 -8 0.08 0.15
5 1 -8 0.43 0.17
5 1 -8 0.22 0.15
5 1 -8 0.25 0.17
5 1 -8 0.2 0.16
5 1 -8 0.2 0.14
-5 1 8 0.16 0.17
-5 1 8 0.16 0.16
-4 -1 8 87.58 6.05
4 -1 -8 85.5 6.38
-4 -1 8 85.16 5.95
4 -1 -8 86.63 6.82
-4 -1 8 82.78 5.98
4 -1 -8 92.94 6.72
4 -1 -8 79.14 6.04
-4 -1 8 85.32 5.95
-4 -1 8 80.89 5.98
-4 -1 8 74.62 5.66
4 1 -8 80.04 5.04
-4 1 8 78.53 5.97
4 1 -8 71.64 5.16
4 1 -8 80.98 5.26
4 1 -8 69.27 4.74
-4 1 8 73.42 5.97
-4 1 8 86.11 6.11
4 1 -8 73.16 4.84
4 1 -8 77.79 4.92
4 1 -8 79.98 5.3
4 1 -8 70.61 4.51
-4 1 8 87.9 6.01
-4 1 8 87.87 5.73
4 1 -8 74.83 5.13
4 1 -8 68.31 4.59
4 1 -8 66.53 4.55
4 1 -8 77.91 5.15
-3 -1 8 0.05 0.08
3 -1 -8 0.04 0.09
-3 -1 8 0.14 0.11
3 -1 -8 -0.01 0.06
3 -1 -8 0.25 0.12
-3 -1 8 0.2 0.11
3 -1 -8 0.12 0.11
3 -1 -8 0.07 0.08
-3 -1 8 0.12 0.1
3 -1 -8 0.01 0.08
-3 -1 8 0.03 0.08
3 -1 -8 0.04 0.06
-3 -1 8 0.25 0.13
-3 1 8 0.02 0.07
3 1 -8 0.87 0.21
3 1 -8 0.21 0.14
-3 1 8 0.07 0.1
-3 1 8 0.11 0.13
3 1 -8 0.23 0.13
-3 1 8 -0.01 0.06
-3 1 8 0.24 0.12
-3 1 8 0.09 0.1
-3 1 8 0.03 0.06
3 1 -8 0.13 0.13
3 1 -8 0.1 0.12
3 1 -8 0.22 0.1
-3 1 8 0.23 0.13
3 1 -8 0.26 0.13
3 1 -8 0.19 0.12
3 1 -8 0.15 0.14
3 1 -8 0.2 0.13
-2 -1 8 1.83 0.2
2 -1 -8 1.88 0.21
2 -1 -8 1.91 0.27
-2 -1 8 2.44 0.24
-2 -1 8 2.07 0.24
2 -1 -8 1.64 0.18
2 -1 -8 1.75 0.25
2 -1 -8 2.25 0.25
-2 -1 8 1.79 0.24
-2 -1 8 1.76 0.23
2 -1 -8 2.23 0.25
2 -1 -8 1.87 0.22
-2 1 8 1.85 0.26
-2 1 8 1.92 0.27
-2 1 8 1.78 0.25
-2 1 8 1.92 0.26
-2 1 8 2.51 0.27
-1 -1 8 13.05 1.05
-1 -1 8 12.44 1.06
-1 -1 8 14.29 1.16
1 -1 -8 13.58 1.21
-1 -1 8 13.86 1.07
1 -1 -8 13.61 1.02
1 -1 -8 13.54 1.06
-1 -1 8 14.32 1.08
1 -1 -8 14.52 1.25
1 -1 -8 14 1.09
-1 -1 8 14.4 1.09
1 -1 -8 12.17 0.93
1 -1 -8 15.23 1.12
-1 1 8 13.43 1.1
-1 1 8 14.2 1.11
-1 1 8 14.71 1.11
-1 1 8 12.11 1.13
-1 1 8 12.04 1.09
-1 1 8 15.86 1.13
0 -1 8 140 10.02
0 -1 8 126.79 9.63
0 -1 8 139.18 9.62
0 -1 -8 130.99 11
0 -1 -8 135.38 9.02
0 -1 8 124.44 9.56
0 -1 8 129.28 10.19
0 -1 8 136.57 9.64
0 -1 8 138.74 8.73
0 -1 -8 135.27 9.79
0 -1 8 124.91 9.65
0 -1 -8 124.42 8.45
0 -1 -8 127.87 9.52
0 -1 -8 120.18 9.22
0 -1 -8 135.5 9.63
0 1 8 122.96 9.66
0 1 8 140.32 9.63
0 1 8 144.78 9.63
0 1 8 110.17 10.18
0 1 8 124.35 9.67
1 -1 8 10.07 0.83
1 -1 8 10.9 0.88
-1 -1 -8 10.32 0.84
-1 -1 -8 11.18 0.88
1 -1 8 11.62 0.97
-1 -1 -8 10.11 0.77
1 -1 8 11.5 0.92
-1 -1 -8 9.16 0.83
1 -1 8 11.15 0.99
-1 -1 -8 10.72 0.83
-1 -1 -8 11.05 0.88
-1 -1 -8 10.88 0.88
1 -1 8 10.7 0.86
1 -1 8 10.62 0.91
1 1 8 10.65 0.89
1 1 8 10.51 0.93
1 1 8 11.12 0.9
1 1 8 9.42 0.85
1 1 8 11.1 0.88
-2 -1 -8 230.86 17.23
2 -1 8 262.43 20.02
2 -1 8 243.67 19.06
-2 -1 -8 232.34 17.02
-2 -1 -8 248.3 17.08
2 -1 8 239.5 18.82
-2 -1 -8 250.97 15.65
2 -1 8 263.17 17.75
2 -1 8 243.3 18.48
-2 -1 -8 250.01 16.66
-2 -1 -8 255.09 17.75
2 -1 8 231.15 19.72
-2 -1 -8 259.56 17.6
2 -1 8 212.01 17.81
2 1 8 227.92 17.74
2 1 8 206.14 18.44
2 1 8 268.13 17.86
2 1 8 244.45 18.85
-2 1 -8 226.68 15.66
-3 -1 -8 2.72 0.32
-3 -1 -8 2.4 0.29
3 -1 8 2.83 0.33
-3 -1 -8 2.52 0.31
-3 -1 -8 2.56 0.27
-3 -1 -8 2.16 0.25
3 -1 8 2.53 0.34
3 -1 8 2.51 0.33
3 -1 8 2.34 0.29
3 -1 8 2.14 0.33
-3 -1 -8 2.75 0.29
3 -1 8 2.38 0.32
3 -1 8 2.94 0.31
-3 -1 -8 2.54 0.31
-3 -1 -8 2.23 0.28
-3 1 -8 2.41 0.34
3 1 8 2.58 0.35
3 1 8 2 0.26
-3 1 -8 2.12 0.26
-3 1 -8 2.28 0.27
-3 1 -8 2.76 0.33
-3 1 -8 2.82 0.33
3 1 8 2.19 0.31
-3 1 -8 2.52 0.28
-3 1 -8 2.29 0.29
-3 1 -8 2.08 0.3
-3 1 -8 2.7 0.32
3 1 8 2.19 0.35
-3 1 -8 2.27 0.33
3 1 8 2.31 0.33
3 1 8 2.41 0.32
3 1 8 2.69 0.35
3 1 8 2.15 0.29
3 1 8 2.31 0.29
3 1 8 2.32 0.26
-3 1 -8 2.57 0.32
3 1 8 1.91 0.28
-4 -1 -8 4.01 0.4
4 -1 8 2.97 0.4
4 -1 8 3.83 0.48
4 -1 8 4.22 0.48
4 -1 8 3.44 0.45
-4 -1 -8 3.62 0.44
-4 -1 -8 4.22 0.43
-4 -1 -8 4.32 0.45
-4 -1 -8 3.59 0.37
4 -1 8 4.64 0.47
4 -1 8 3.57 0.46
-4 -1 -8 4.69 0.44
4 -1 8 3.93 0.42
-4 -1 -8 3.67 0.42
-4 1 -8 3.67 0.39
-4 1 -8 3.9 0.39
-4 1 -8 3.05 0.35
4 1 8 3.46 0.42
-4 1 -8 4.08 0.48
-4 1 -8 3.21 0.36
-4 1 -8 3.89 0.45
-4 1 -8 3.92 0.43
4 1 8 3.56 0.41
4 1 8 3.28 0.35
-4 1 -8 4.87 0.4
-4 1 -8 3.88 0.43
4 1 8 3.7 0.46
4 1 8 3.95 0.39
4 1 8 3.59 0.4
4 1 8 3.75 0.38
-4 1 -8 3.17 0.39
-4 1 -8 4.26 0.39
4 1 8 4.12 0.45
4 1 8 3.58 0.38
4 1 8 3.33 0.36
4 1 8 3.71 0.44
-5 -1 -8 0.03 0.17
5 -1 8 0.58 0.23
5 -1 8 0.06 0.17
5 -1 8 0.06 0.17
5 -1 8 0.15 0.18
5 -1 8 0.62 0.25
-5 -1 -8 0.47 0.2
-5 -1 -8 0.25 0.2
-5 -1 -8 0.39 0.18
-5 -1 -8 0.27 0.21
-5 -1 -8 0.24 0.21
5 1 8 0.19 0.15
-5 1 -8 0.35 0.2
5 1 8 0.16 0.12
5 1 8 0.11 0.14
5 1 8 0.08 0.11
-5 1 -8 0.29 0.17
-5 1 -8 0.48 0.18
-5 1 -8 0.34 0.17
5 1 8 0.05 0.14
5 1 8 0.69 0.21
5 1 8 0.2 0.19
5 1 8 0.17 0.21
-5 1 -8 0.13 0.19
5 1 8 0.42 0.18
5 1 8 0 0.18
-5 1 -8 0.03 0.15
-5 1 -8 0.41 0.18
-5 1 -8 0.43 0.18
-5 1 -8 0.04 0.19
-5 1 -8 0.13 0.17
-6 1 -8 62.78 3.69
-6 1 -8 55.45 4.08
6 1 8 59.01 3.86
-6 1 -8 54.75 4.22
6 1 8 54.78 3.72
-6 1 -8 61.64 3.62
-6 1 -8 58.81 3.72
6 1 8 58.27 3.81
6 1 8 60.5 3.74
-6 1 -8 56.6 3.59
6 1 8 56 3.95
6 1 8 60.12 3.91
7 -1 8 1.49 0.25
-7 -1 -8 0.83 0.24
7 -1 8 1.45 0.25
7 -1 8 1.12 0.22
7 -1 8 1.14 0.23
7 -1 8 1.62 0.29
-7 -1 -8 1.37 0.24
7 -1 8 1.34 0.22
-7 1 -8 1.02 0.25
7 1 8 1.44 0.26
-7 1 -8 1.05 0.26
-7 1 -8 1.67 0.29
7 1 8 1.8 0.32
-7 1 -8 1.21 0.24
7 1 8 1.43 0.25
7 1 8 0.92 0.22
7 1 8 1.3 0.26
-7 1 -8 2 0.3
-7 1 -8 1.34 0.27
7 1 8 1.39 0.27
-8 -1 -8 47.74 3.17
8 -1 8 54.2 3.44
8 -1 8 55.15 3.5
8 -1 8 43.84 3.26
-8 -1 -8 50.88 3.26
-8 -1 -8 55.44 3.19
-8 -1 -8 54.02 3.24
8 -1 8 54.71 3.52
-8 1 -8 45.85 3.21
-8 1 -8 51.67 3.18
-8 1 -8 52.14 3.75
-8 1 -8 57.5 3.29
8 1 8 54.07 3.5
8 1 8 57.05 3.46
8 1 8 55.64 3.3
8 1 8 51.25 3.35
8 -2 -8 42.74 2.44
8 2 -8 37.72 2.6
-8 2 8 40.67 2.49
8 2 -8 38.56 2.6
7 -2 -8 4.99 0.43
7 -2 -8 4.4 0.4
7 -2 -8 4.7 0.4
7 -2 -8 5.23 0.42
7 -2 -8 4.48 0.4
-7 2 8 4.33 0.47
-7 2 8 5.26 0.46
7 2 -8 4.61 0.46
7 2 -8 5.77 0.49
7 2 -8 4.97 0.47
7 2 -8 4.63 0.44
7 2 -8 4.34 0.42
-7 2 8 5.43 0.48
7 2 -8 5.07 0.45
7 2 -8 4.08 0.42
-7 2 8 5.28 0.46
-7 2 8 5.17 0.47
6 -2 -8 7.28 0.62
6 -2 -8 7.21 0.55
6 -2 -8 8.53 0.62
6 -2 -8 6.93 0.6
6 2 -8 6.74 0.59
6 2 -8 8.15 0.7
6 2 -8 7.98 0.72
6 2 -8 7.85 0.68
-6 2 8 8.09 0.61
-6 2 8 7.03 0.71
6 2 -8 8.76 0.7
-6 2 8 9.75 0.75
6 2 -8 7.66 0.67
-6 2 8 9.17 0.73
6 2 -8 6.86 0.66
6 2 -8 7.73 0.65
6 2 -8 7.19 0.69
-6 2 8 8.29 0.69
-6 2 8 8.72 0.71
5 2 -8 9.72 0.88
5 2 -8 10.75 0.81
-5 2 8 11.99 0.93
5 2 -8 10.74 0.89
-5 2 8 11.68 0.93
-5 2 8 10.56 0.82
5 2 -8 11.61 0.9
5 2 -8 11.54 0.93
5 2 -8 10.7 0.86
-5 2 8 10.72 0.8
5 2 -8 9.78 0.77
5 2 -8 9.66 0.84
5 2 -8 10.71 0.89
5 2 -8 9.98 0.78
-5 2 8 11.8 0.93
-5 2 8 10.69 0.94
5 2 -8 10.77 0.9
5 2 -8 10.92 0.8
-5 2 8 11.87 0.91
5 2 -8 10.77 0.88
-4 -2 8 40.16 3.23
-4 -2 8 44.19 3.22
4 -2 -8 37.3 3.39
4 -2 -8 35.69 3.17
-4 -2 8 40.81 3.2
-4 -2 8 43.12 3.24
4 -2 -8 43.49 3.69
4 -2 -8 41.91 3.27
4 -2 -8 42.44 3.61
-4 -2 8 39.32 3.24
-4 2 8 41.94 2.79
4 2 -8 42.45 2.53
-4 2 8 39.42 2.74
4 2 -8 41.18 2.75
4 2 -8 45.01 2.85
4 2 -8 44.25 2.67
-4 2 8 42.52 3.38
4 2 -8 45.49 2.87
4 2 -8 42.88 2.89
-4 2 8 42.8 2.81
4 2 -8 36.68 2.47
4 2 -8 41.97 2.72
4 2 -8 40.31 3.05
4 2 -8 39.77 2.77
4 2 -8 41.51 2.48
4 2 -8 41.17 2.79
4 2 -8 46.22 2.7
-4 2 8 39.03 3.3
4 2 -8 44.81 2.81
4 2 -8 39.11 2.47
-4 2 8 39.11 2.65
4 2 -8 39.19 2.48
4 2 -8 42.67 2.71
4 2 -8 45.63 2.82
4 2 -8 40.64 2.67
4 2 -8 40.36 2.58
-4 2 8 42.85 2.73
-4 2 8 42.25 2.71
-4 2 8 40.01 2.52
4 2 -8 38.64 2.48
3 -2 -8 0.15 0.17
-3 -2 8 0.32 0.17
-3 -2 8 0.39 0.16
3 -2 -8 0.53 0.2
3 -2 -8 0.17 0.13
-3 -2 8 0.18 0.17
3 -2 -8 0.25 0.16
-3 -2 8 0.3 0.17
3 -2 -8 0.37 0.15
3 -2 -8 0.28 0.16
3 -2 -8 0.08 0.12
-3 -2 8 0.2 0.14
3 2 -8 0.34 0.14
3 2 -8 0.71 0.2
3 2 -8 0.84 0.21
3 2 -8 0.33 0.21
3 2 -8 0.38 0.16
3 2 -8 0.96 0.26
3 2 -8 0.12 0.16
3 2 -8 1.04 0.21
3 2 -8 0.43 0.2
-3 2 8 0.23 0.2
-3 2 8 0.47 0.18
-3 2 8 0.24 0.16
-3 2 8 0.14 0.14
-3 2 8 0.31 0.18
3 2 -8 0.45 0.17
3 2 -8 0.25 0.15
3 2 -8 0.24 0.19
3 2 -8 0.3 0.14
3 2 -8 0.28 0.14
3 2 -8 0.33 0.14
3 2 -8 0.7 0.24
3 2 -8 0.32 0.17
3 2 -8 0.33 0.18
3 2 -8 0.89 0.24
3 2 -8 0.53 0.18
-3 2 8 0.23 0.17
-3 2 8 0.39 0.25
-3 2 8 0.28 0.23
-3 2 8 0.36 0.22
3 2 -8 0.62 0.22
3 2 -8 0.36 0.16
3 2 -8 0.35 0.18
3 2 -8 0.33 0.14
3 2 -8 0.32 0.19
3 2 -8 0.42 0.18
-3 2 8 0.26 0.2
3 2 -8 0.29 0.14
-3 2 8 0.39 0.22
2 -2 -8 224.14 15.11
2 -2 -8 258.08 19.7
2 -2 -8 236.85 17.01
-2 -2 8 233.71 17.15
-2 -2 8 248.55 17.15
2 -2 -8 232.03 19.31
-2 -2 8 224.4 17.46
-2 -2 8 251.32 17.26
-2 -2 8 246.65 17.28
2 -2 -8 253.06 17.51
2 -2 -8 232.29 16.11
-2 -2 8 254.9 18.25
2 -2 -8 245.58 17.2
2 2 -8 233.1 14.49
2 2 -8 235.26 14.47
2 2 -8 240 14.33
2 2 -8 237.56 13.99
2 2 -8 228.72 15.81
-2 2 8 224.13 14.01
2 2 -8 254.71 16.31
-2 2 8 203.75 14.63
2 2 -8 238.79 16.61
-2 2 8 229.42 17.24
2 2 -8 240.3 13.93
2 2 -8 241.05 14.07
2 2 -8 233.07 13.02
2 2 -8 235.51 14.25
2 2 -8 229.28 13.34
-2 2 8 202.93 16.58
2 2 -8 241.43 14.66
2 2 -8 233.19 13.33
2 2 -8 231 13.04
2 2 -8 239.15 13.23
2 2 -8 231.97 13.85
2 2 -8 246.24 14.62
2 2 -8 250.91 16.59
-2 2 8 216.91 14.54
2 2 -8 234.7 14.86
2 2 -8 235.96 14.67
-2 2 8 206.4 14.68
2 2 -8 235.16 14.91
2 2 -8 236.32 14.67
-2 2 8 204.89 17.19
2 2 -8 235.32 14.12
2 2 -8 217.27 13.76
2 2 -8 225.05 13.34
-2 2 8 199.36 14.08
2 2 -8 230.38 13.28
2 2 -8 230.35 13.37
2 2 -8 248.93 15.01
2 2 -8 238.67 14
-2 2 8 213.53 13.26
2 2 -8 229.93 14.17
2 2 -8 226.03 13.82
2 2 -8 234.15 14.17
2 2 -8 238.56 15.19
2 2 -8 243.07 14.53
2 2 -8 224.13 13.32
-2 2 8 201.26 14.16
2 2 -8 244.73 14.9
2 2 -8 239.4 15.24
2 2 -8 240.59 16.81
2 2 -8 249.66 15.37
-1 -2 8 0.19 0.1
-1 -2 8 0.29 0.17
1 -2 -8 0.18 0.11
1 -2 -8 0.16 0.13
1 -2 -8 0.17 0.11
-1 -2 8 0.28 0.15
1 -2 -8 0.14 0.12
-1 -2 8 0.49 0.19
-1 -2 8 0.24 0.11
-1 -2 8 0.1 0.13
1 -2 -8 0.14 0.12
-1 -2 8 0.26 0.12
1 -2 -8 0.15 0.1
1 -2 -8 0.39 0.15
-1 2 8 0 0.07
1 2 -8 0.18 0.14
1 2 -8 0.16 0.13
1 2 -8 0.35 0.16
1 2 -8 0.11 0.13
1 2 -8 0.31 0.17
1 2 -8 0.1 0.12
1 2 -8 0.24 0.16
1 2 -8 0.17 0.13
-1 2 8 0.19 0.14
1 2 -8 0.13 0.14
1 2 -8 0.09 0.17
1 2 -8 0.24 0.14
-1 2 8 0.11 0.13
1 2 -8 0.2 0.14
1 2 -8 0.16 0.14
1 2 -8 0.02 0.12
1 2 -8 0.11 0.13
1 2 -8 0.05 0.11
1 2 -8 0.08 0.12
-1 2 8 0.24 0.17
-1 2 8 0.04 0.11
1 2 -8 0.08 0.14
1 2 -8 0.22 0.12
1 2 -8 0.26 0.14
-1 2 8 0.13 0.14
1 2 -8 0.14 0.16
1 2 -8 0.43 0.17
-1 2 8 0.18 0.13
1 2 -8 0.28 0.13
-1 2 8 0.14 0.14
1 2 -8 0.13 0.11
1 2 -8 0.12 0.18
-1 2 8 0.15 0.12
1 2 -8 0.19 0.11
1 2 -8 0.17 0.11
1 2 -8 0.12 0.14
1 2 -8 0.75 0.19
1 2 -8 0.16 0.12
1 2 -8 0.11 0.11
1 2 -8 0.39 0.18
1 2 -8 0.29 0.16
-1 2 8 0.24 0.13
1 2 -8 0.18 0.11
-1 2 8 0.17 0.13
1 2 -8 0.15 0.16
1 2 -8 0.05 0.15
-1 2 8 -0.06 0.12
1 2 -8 0.4 0.17
1 2 -8 0.16 0.15
0 -2 -8 91.09 5.87
0 -2 -8 92.78 6.77
0 -2 -8 98.47 6.27
0 -2 -8 84.63 7.58
0 -2 8 93.97 6.04
0 -2 8 88.31 7.04
0 -2 8 90.39 7.41
0 -2 8 90.48 7.17
0 -2 -8 94.92 6.42
0 -2 8 94.53 6.66
0 -2 8 94.58 6.65
0 -2 -8 98.63 6.62
0 -2 -8 100.33 6.68
0 -2 8 93.8 6.94
0 2 8 76.36 6.53
0 2 8 74.76 5.88
0 2 -8 88.49 5.39
0 2 -8 87.48 5.2
0 2 -8 89.28 6.15
0 2 -8 97.64 5.79
0 2 -8 89.49 6.52
0 2 -8 93.99 5.18
0 2 -8 90.13 5.08
0 2 -8 88.86 5.54
0 2 -8 86.98 5.2
0 2 -8 89.37 5.89
0 2 -8 89.27 5.7
0 2 -8 88.55 5.45
0 2 -8 103.14 5.93
0 2 -8 94.47 5.5
0 2 -8 92.54 5.79
0 2 8 80.6 6.45
0 2 -8 84.77 5.12
0 2 8 84.24 5.65
0 2 -8 89.88 5.2
0 2 -8 95.08 5.77
0 2 -8 91.31 5.06
0 2 -8 94.14 5.83
0 2 -8 85.31 5.42
0 2 -8 88.54 5.34
0 2 -8 92.69 5.63
0 2 -8 88.18 5.5
0 2 -8 88.5 5.68
0 2 -8 86.5 5.42
0 2 8 84.71 5.47
0 2 8 78.68 6.45
0 2 -8 87.23 5.19
0 2 8 83.48 6.7
0 2 8 86.14 5.14
0 2 -8 89.65 5.16
0 2 -8 97.35 5.57
0 2 -8 91.17 6.43
0 2 -8 87.44 5.39
0 2 -8 99.36 5.97
0 2 -8 95.26 5.62
0 2 8 75.54 5.65
0 2 -8 88.72 6.44
0 2 -8 93.93 5.69
0 2 -8 85.53 5.49
0 2 -8 92.76 6.35
0 2 8 76.85 6.67
0 2 -8 86.17 5.66
0 2 -8 91.04 5.43
0 2 8 83.79 5.71
0 2 -8 90.09 5.63
-1 -2 -8 27.55 2.22
1 -2 8 30 2.53
1 -2 8 29.82 2.3
-1 -2 -8 30.32 2.14
-1 -2 -8 30.94 2.22
1 -2 8 30.9 2.48
-1 -2 -8 30.09 1.96
1 -2 8 30.48 2.2
-1 -2 -8 31.26 2.09
-1 -2 -8 30.42 2.21
1 -2 8 28.97 2.4
-1 -2 -8 30.52 2.17
-1 2 -8 27.86 1.84
-1 2 -8 28.86 1.68
1 2 8 24.91 1.81
-1 2 -8 31.66 1.84
-1 2 -8 28.87 1.78
-1 2 -8 30.09 1.83
-1 2 -8 28.47 1.8
1 2 8 25.19 1.92
1 2 8 28.43 1.91
-1 2 -8 29.43 1.73
-1 2 -8 26.92 1.86
1 2 8 25.75 1.88
-1 2 -8 29.68 2.14
-1 2 -8 26.77 1.87
-1 2 -8 26.43 2.12
-1 2 -8 29.03 1.84
-1 2 -8 28.11 1.72
-1 2 -8 29.4 1.72
-1 2 -8 29.05 1.91
-1 2 -8 27.83 1.73
-1 2 -8 28.8 2.06
1 2 8 28.44 1.89
-1 2 -8 27.83 1.74
-1 2 -8 29.06 1.77
1 2 8 27.04 1.98
-1 2 -8 30.44 1.87
1 2 8 27.4 2.17
-1 2 -8 26 1.69
-1 2 -8 29.15 1.76
-1 2 -8 26.44 1.8
1 2 8 27.66 2.19
-1 2 -8 28.52 1.87
-1 2 -8 28.09 1.81
-1 2 -8 30.15 1.87
-1 2 -8 26.07 1.87
1 2 8 28.11 2.23
1 2 8 29.17 2.17
2 -2 8 46.7 3.8
2 -2 8 48.45 3.56
-2 -2 -8 46.08 3.03
-2 -2 -8 47.2 3.21
-2 -2 -8 46.5 3.3
2 -2 8 46.31 3.69
-2 -2 -8 43.48 3.39
2 -2 8 46.73 3.88
2 -2 8 46.18 3.95
-2 -2 -8 46.36 3.33
-2 -2 -8 49.68 3.41
-2 -2 -8 44.3 3.29
-2 2 -8 46.64 2.93
2 2 8 45.38 3.37
-2 2 -8 43.16 2.66
-2 2 -8 43.08 2.7
-2 2 -8 44.32 2.63
2 2 8 46.74 3.32
-2 2 -8 45.42 2.82
2 2 8 41.26 2.99
2 2 8 43.04 2.91
-2 2 -8 44.11 2.86
2 2 8 44.39 2.89
-2 2 -8 46.52 2.87
-2 2 -8 44.4 2.83
-2 2 -8 42.17 2.67
2 2 8 44.3 3.33
-2 2 -8 45.96 2.78
-2 2 -8 41.98 2.75
-2 2 -8 46.65 2.8
2 2 8 38.29 3.6
-2 2 -8 45.53 3.17
2 2 8 43.69 3.05
2 2 8 40.05 2.93
2 2 8 44.35 2.91
-2 2 -8 45.98 3.28
3 -2 8 1.23 0.29
-3 -2 -8 1.71 0.33
3 -2 8 1.39 0.31
3 -2 8 1.31 0.31
-3 -2 -8 0.92 0.24
3 -2 8 1.55 0.3
-3 -2 -8 1.59 0.29
-3 -2 -8 1.52 0.31
3 -2 8 1.35 0.33
-3 -2 -8 1.67 0.29
-3 -2 -8 1.57 0.31
3 -2 8 1.9 0.39
-3 2 -8 1.78 0.29
3 2 8 1.84 0.32
3 2 8 2.08 0.31
-3 2 -8 1.18 0.28
3 2 8 1.51 0.28
-3 2 -8 2.49 0.38
3 2 8 1.2 0.24
-3 2 -8 1.51 0.3
-3 2 -8 1.45 0.33
-3 2 -8 1.02 0.24
3 2 8 1.22 0.27
-3 2 -8 1.54 0.33
-3 2 -8 1.57 0.32
3 2 8 1.07 0.28
-3 2 -8 1.42 0.27
3 2 8 2.25 0.35
-3 2 -8 0.99 0.25
3 2 8 1.75 0.33
3 2 8 1.58 0.29
4 -2 8 133.52 10.97
4 -2 8 118.41 10.08
-4 -2 -8 127.73 9.46
-4 -2 -8 133.56 9.37
4 -2 8 131.26 10.44
4 -2 8 122.23 9.9
4 -2 8 125.37 11.15
-4 -2 -8 130.59 8.57
-4 -2 -8 126.15 9.34
-4 -2 -8 124.78 9.9
4 -2 8 121.19 10.78
-4 -2 -8 114.58 9.59
-4 2 -8 144.21 7.96
-4 2 -8 131.4 7.57
4 2 8 147.51 8.26
-4 2 -8 126.66 8.3
-4 2 -8 125.54 8.96
-4 2 -8 132.01 8.11
-4 2 -8 133.85 7.9
4 2 8 138.64 9.41
4 2 8 123.7 8.17
-4 2 -8 142.88 8.08
4 2 8 140.53 8.5
4 2 8 136.6 9.51
4 2 8 135.03 8.37
4 2 8 143.22 8.63
-4 2 -8 132.44 9.27
4 2 8 117.96 8.53
-5 2 -8 4.82 0.5
5 2 8 4.44 0.56
5 2 8 4.07 0.49
-5 2 -8 4.95 0.58
5 2 8 4.94 0.47
5 2 8 5.11 0.53
-5 2 -8 4.46 0.47
-5 2 -8 5.24 0.53
-5 2 -8 4.61 0.53
-5 2 -8 5.22 0.53
5 2 8 5.01 0.53
5 2 8 5.21 0.51
5 2 8 4.72 0.47
-5 2 -8 4.84 0.52
-6 2 -8 60.89 3.78
6 2 8 55.65 4.05
-6 2 -8 50.13 3.86
6 2 8 62.9 3.94
-6 2 -8 58.12 4.22
6 2 8 58.11 4
6 2 8 63.57 3.87
-6 2 -8 63.1 4.39
-6 2 -8 62.36 3.84
6 2 8 64.32 4.05
6 2 8 61.28 3.98
-6 2 -8 62.48 3.73
6 2 8 59.78 3.85
7 -2 8 16.97 1.18
7 -2 8 14.52 1.12
7 -2 8 17.71 1.16
-7 2 -8 15.45 1.22
7 2 8 15.87 1.17
-7 2 -8 13.56 1.09
7 2 8 17.27 1.15
7 2 8 17.86 1.19
-7 2 -8 17.16 1.14
-7 2 -8 16.45 1.09
7 2 8 17.46 1.14
-7 2 -8 16.99 1.3
7 2 8 16.08 1.15
6 -3 -8 55.91 3.97
6 -3 -8 59.55 3.49
6 -3 -8 63.02 3.76
6 -3 -8 67.89 3.82
-6 3 8 68.47 3.83
6 3 -8 52.98 3.87
6 3 -8 53.69 3.92
-6 3 8 59.71 3.96
6 3 -8 65.81 4.04
6 3 -8 61.93 4.04
6 3 -8 59.02 3.85
6 3 -8 62.29 4.11
6 3 -8 57 3.82
-6 3 8 66.79 3.99
-6 3 8 60.34 3.58
6 3 -8 67.58 4.06
6 3 -8 62.86 4.16
-6 3 8 69.13 3.88
6 3 -8 62.56 3.81
5 3 -8 0.33 0.16
5 3 -8 0.16 0.13
5 3 -8 0.11 0.18
-5 3 8 0.3 0.18
-5 3 8 -0.08 0.2
5 3 -8 -0.14 0.16
5 3 -8 -0.04 0.15
5 3 -8 0.24 0.17
5 3 -8 0.28 0.23
5 3 -8 0.13 0.19
-5 3 8 0.36 0.21
5 3 -8 0.21 0.18
-5 3 8 0.09 0.21
5 3 -8 0.06 0.13
-5 3 8 0.08 0.18
5 3 -8 -0.01 0.19
5 3 -8 0.38 0.22
-5 3 8 0.28 0.22
5 3 -8 0.12 0.17
5 3 -8 0.13 0.15
-4 3 8 105.01 6.57
4 3 -8 106.06 6.33
4 3 -8 104 6.47
-4 3 8 98.92 6.48
4 3 -8 97.35 6.67
4 3 -8 98.47 6.8
4 3 -8 105.36 6.61
-4 3 8 101.53 5.92
4 3 -8 99.39 6.33
-4 3 8 93.24 6.47
4 3 -8 104.8 6.63
4 3 -8 104.29 6.26
4 3 -8 101 6.46
4 3 -8 97.06 5.86
4 3 -8 100.07 6.56
-4 3 8 105.78 6.29
4 3 -8 105.85 6.74
4 3 -8 90.72 5.78
-4 3 8 102.27 6.26
-4 3 8 100.86 6.33
4 3 -8 100.43 5.91
4 3 -8 106.58 6.65
4 3 -8 106.16 6.38
4 3 -8 94.12 6.08
3 3 -8 28.6 1.98
3 3 -8 27.42 1.74
3 3 -8 25.66 1.74
3 3 -8 29.06 1.91
3 3 -8 29 1.98
3 3 -8 27.01 1.84
3 3 -8 26.6 1.74
3 3 -8 26.21 2.12
3 3 -8 26.65 2.1
3 3 -8 26.14 1.89
-3 3 8 26.78 1.77
3 3 -8 28.51 1.87
3 3 -8 29.06 1.88
3 3 -8 28.05 1.84
3 3 -8 27.83 2
3 3 -8 26.99 1.79
3 3 -8 28.26 1.93
3 3 -8 27.67 1.79
3 3 -8 26.87 1.82
-3 3 8 24.8 1.85
-3 3 8 23.84 1.84
3 3 -8 28.96 1.96
3 3 -8 27.1 1.75
3 3 -8 28.34 1.95
3 3 -8 27.02 1.92
-3 3 8 26.75 1.86
-3 3 8 26.03 1.85
-3 3 8 27.17 1.91
3 3 -8 27.67 2.11
-3 3 8 26.28 1.96
2 -3 -8 0.4 0.26
2 -3 -8 0.42 0.2
2 -3 -8 1.06 0.31
2 -3 -8 0.8 0.29
2 -3 -8 1 0.29
2 3 -8 2.63 0.41
2 3 -8 0.87 0.26
2 3 -8 0.98 0.26
-2 3 8 1.12 0.3
2 3 -8 0.93 0.31
2 3 -8 0.95 0.29
2 3 -8 1.08 0.27
2 3 -8 1.26 0.3
2 3 -8 1.74 0.32
2 3 -8 0.66 0.29
2 3 -8 1.22 0.31
-2 3 8 1.31 0.34
2 3 -8 0.85 0.28
2 3 -8 1.18 0.3
2 3 -8 0.72 0.22
-2 3 8 1.51 0.3
2 3 -8 0.56 0.29
2 3 -8 0.63 0.29
2 3 -8 0.84 0.32
-2 3 8 1.1 0.29
2 3 -8 1.72 0.32
2 3 -8 0.54 0.25
-2 3 8 0.7 0.26
2 3 -8 1.13 0.28
-2 3 8 0.61 0.22
2 3 -8 2.05 0.32
2 3 -8 1.28 0.32
2 3 -8 1.03 0.32
2 3 -8 0.92 0.26
2 3 -8 0.66 0.24
-2 3 8 0.43 0.25
2 3 -8 1.11 0.31
2 3 -8 1 0.24
2 3 -8 0.37 0.2
2 3 -8 1.22 0.29
2 3 -8 0.64 0.22
-2 3 8 0.96 0.28
2 3 -8 1.4 0.34
2 3 -8 0.83 0.26
2 3 -8 1.12 0.28
2 3 -8 1.42 0.3
2 3 -8 1.03 0.35
2 3 -8 0.99 0.28
2 3 -8 0.89 0.27
2 3 -8 0.72 0.23
2 3 -8 1.24 0.25
2 3 -8 0.86 0.25
2 3 -8 1.52 0.33
1 -3 -8 9.92 1
1 -3 -8 9.67 1
1 -3 -8 10.54 1.03
1 -3 -8 10.51 0.96
1 -3 -8 8.94 1
1 -3 -8 9.74 0.91
1 3 -8 11.51 0.84
1 3 -8 11.64 0.91
1 3 -8 11.22 0.87
-1 3 8 10.45 0.87
1 3 -8 11.14 0.88
1 3 -8 12.04 0.88
1 3 -8 10.94 0.86
1 3 -8 11.72 0.87
1 3 -8 11.2 0.89
1 3 -8 11.52 0.88
-1 3 8 10.69 0.89
-1 3 8 10.71 1
1 3 -8 11.98 0.85
-1 3 8 10.46 0.91
1 3 -8 11.97 0.87
1 3 -8 11.34 0.94
1 3 -8 12.1 0.92
1 3 -8 11.25 0.88
-1 3 8 9.69 0.98
1 3 -8 11.44 0.86
1 3 -8 12.05 0.8
1 3 -8 11.54 0.99
1 3 -8 11.39 0.9
-1 3 8 10.65 0.84
-1 3 8 10.22 0.88
1 3 -8 11.67 0.86
1 3 -8 11.59 1.01
1 3 -8 10.91 0.97
1 3 -8 11.33 0.87
1 3 -8 11.67 0.85
1 3 -8 11.9 0.87
1 3 -8 11.43 0.94
1 3 -8 11.55 0.87
1 3 -8 10.2 0.83
1 3 -8 12.03 0.83
1 3 -8 12.19 0.9
1 3 -8 12.32 0.94
1 3 -8 12.62 0.86
1 3 -8 11.23 0.89
1 3 -8 10.53 0.96
-1 3 8 10.55 0.82
1 3 -8 12.57 0.9
1 3 -8 11.05 0.82
1 3 -8 10.92 0.83
1 3 -8 10.96 0.88
1 3 -8 12.14 0.87
1 3 -8 11.68 0.89
1 3 -8 12.3 0.99
0 -3 -8 220.34 15.5
0 -3 -8 209.4 15.88
0 -3 -8 217.11 14.54
0 -3 -8 194.89 16.5
0 3 8 217.74 14.02
0 3 8 205.76 12.72
0 3 -8 228.3 14.1
0 3 -8 234.08 13.43
0 3 -8 218.77 13.93
0 3 -8 225.31 13.5
0 3 -8 236.21 13.61
0 3 -8 231.55 12.83
0 3 -8 217.35 15.91
0 3 -8 220.57 14.07
0 3 -8 240.47 12.57
0 3 8 205.93 15.96
0 3 -8 227.68 13.34
0 3 -8 225.49 15.21
0 3 -8 233.17 13.44
0 3 -8 224.04 15.69
0 3 8 218.61 13.54
0 3 -8 246.14 13.25
0 3 -8 222.53 12.7
0 3 -8 223.99 16.14
0 3 -8 230.26 13.63
0 3 -8 241.79 12.8
0 3 8 203.46 16.18
0 3 -8 226.37 14.03
0 3 8 208.52 15.96
0 3 8 213.32 14.13
0 3 -8 230.71 12.87
0 3 -8 240.41 12.52
0 3 -8 233.24 13.33
0 3 -8 231.13 12.86
0 3 -8 231.44 12.76
0 3 8 201.09 13.97
0 3 -8 227.26 13.71
0 3 -8 224.18 15.95
0 3 -8 229.46 12.87
-1 -3 -8 0.53 0.27
1 -3 8 0.26 0.21
-1 -3 -8 0.08 0.19
-1 -3 -8 0.02 0.22
1 -3 8 0.18 0.22
1 -3 8 -0.07 0.22
-1 -3 -8 0.28 0.21
1 -3 8 0.22 0.21
-1 -3 -8 -0.49 0.18
1 3 8 0.22 0.16
-1 3 -8 0.12 0.23
-1 3 -8 0.16 0.2
-1 3 -8 0.34 0.2
1 3 8 0.21 0.17
-1 3 -8 0.08 0.21
-1 3 -8 0.19 0.18
-1 3 -8 0.27 0.23
-1 3 -8 -0.02 0.23
1 3 8 0.16 0.16
1 3 8 0.14 0.15
-1 3 -8 0.04 0.15
-1 3 -8 0.22 0.15
-1 3 -8 0.41 0.19
-1 3 -8 0.19 0.16
-1 3 -8 -0.02 0.17
-1 3 -8 0.2 0.21
-1 3 -8 0.06 0.23
1 3 8 0.21 0.22
-1 3 -8 0.23 0.18
1 3 8 0.14 0.14
-1 3 -8 0.3 0.28
-1 3 -8 0.16 0.2
-1 3 -8 -0.1 0.17
-1 3 -8 0.14 0.15
1 3 8 0.14 0.16
-1 3 -8 0.44 0.23
1 3 8 0.04 0.18
-1 3 -8 0.01 0.14
1 3 8 -0.15 0.13
-1 3 -8 0.25 0.18
2 3 8 127.91 8.41
2 3 8 152.73 9.8
2 3 8 142.69 9.62
-2 3 -8 135.38 9.47
-2 3 -8 139.96 8.2
-2 3 -8 142.45 8.29
-2 3 -8 138.36 8.08
-2 3 -8 132.87 7.55
2 3 8 143.81 8.41
2 3 8 125.02 8.08
2 3 8 115.85 8.8
-2 3 -8 133.13 8.11
-2 3 -8 128.22 7.7
-2 3 -8 119.02 7.59
-2 3 -8 132.58 7.75
-2 3 -8 136.98 8.08
-2 3 -8 138.84 8.24
-2 3 -8 134.1 9.16
-2 3 -8 140.44 8.5
-2 3 -8 127.83 7.97
2 3 8 116.15 8.62
2 3 8 130.76 9.63
-2 3 -8 133.18 8.41
2 3 8 131.93 8.46
3 3 8 26.59 1.99
3 3 8 25.56 1.94
-3 3 -8 26.29 1.9
-3 3 -8 25.48 1.67
-3 3 -8 25.79 1.71
-3 3 -8 24.4 1.74
-3 3 -8 23.93 1.73
3 3 8 21.69 1.75
-3 3 -8 23.5 1.62
-3 3 -8 24.14 1.97
3 3 8 25.07 1.67
-3 3 -8 25.02 1.6
3 3 8 25.55 1.83
-3 3 -8 25.14 1.75
-3 3 -8 22.85 1.68
3 3 8 28.07 2.01
3 3 8 22.69 1.79
-4 3 -8 2.37 0.42
4 3 8 2.73 0.43
-4 3 -8 3.15 0.48
-4 3 -8 2.41 0.46
-4 3 -8 2.75 0.37
4 3 8 2.98 0.37
4 3 8 1.96 0.37
4 3 8 1.97 0.33
-4 3 -8 2.03 0.36
-4 3 -8 2.27 0.41
4 3 8 2.99 0.44
4 3 8 2.67 0.4
-4 3 -8 2.43 0.36
-4 3 -8 2.06 0.33
4 3 8 1.57 0.36
4 3 8 2.45 0.4
-5 3 -8 4.39 0.42
5 3 8 4.64 0.44
-5 3 -8 4.92 0.46
-5 3 -8 4.43 0.47
-5 3 -8 4.87 0.47
5 3 8 4.45 0.48
-5 3 -8 4.76 0.51
-5 3 -8 4.47 0.54
5 3 8 4.56 0.47
5 3 8 4.93 0.45
5 3 8 5.06 0.5
-5 3 -8 4.56 0.48
5 3 8 4.52 0.48
6 3 8 46.37 2.83
-6 3 -8 43.07 3.15
-6 3 -8 40.77 2.79
-6 3 -8 41.65 2.66
6 3 8 46.02 2.77
6 3 8 43.73 2.78
-6 3 -8 44.92 2.75
6 3 8 44.6 2.87
6 3 8 38.32 2.88
-6 3 -8 45.39 3.04
-4 4 8 9.02 0.64
-4 4 8 8.42 0.6
-4 4 8 8.04 0.61
-3 4 8 0.27 0.17
-3 4 8 0.27 0.19
-3 4 8 0.43 0.18
-3 4 8 0.39 0.21
-3 4 8 0.16 0.2
-2 4 8 41.44 2.43
-2 4 8 39.29 2.58
-2 4 8 38.48 2.49
-2 4 8 36.67 2.57
-2 4 8 38.91 2.35
-2 4 8 35.37 2.84
-2 4 8 39.11 2.53
-1 4 8 3.03 0.41
1 4 -8 2.8 0.35
-1 4 8 2.77 0.37
-1 4 8 2.13 0.34
-1 4 8 1.86 0.34
1 4 -8 2.74 0.38
1 4 -8 2.81 0.37
-1 4 8 2.73 0.42
1 4 -8 2.74 0.36
-1 4 8 2.49 0.4
-1 4 8 2.17 0.4
0 4 8 10.52 0.75
0 4 -8 10.48 0.79
0 4 8 10.72 0.95
0 4 -8 12.39 0.76
0 4 -8 9.78 0.93
0 4 -8 11.86 0.86
0 4 8 11.05 0.98
0 4 8 11.09 0.86
0 4 -8 11.14 0.84
0 4 8 9.57 0.94
0 4 -8 10.79 0.83
0 4 8 11.77 0.83
0 4 8 10.03 0.84
0 4 -8 10.69 0.81
0 4 -8 11.07 0.81
0 4 -8 12.16 0.93
0 4 -8 10.77 0.81
0 4 8 8.27 0.8
0 4 -8 10.76 0.86
0 4 -8 10.04 0.82
1 4 8 14.57 1.22
1 4 8 13.5 1.23
1 4 8 15.97 1.23
-1 4 -8 14.68 1.06
-1 4 -8 13.89 0.99
1 4 8 11.6 0.99
-1 4 -8 13.86 1
-1 4 -8 14.75 1.04
-1 4 -8 14.37 1.04
-1 4 -8 14.53 1.02
-1 4 -8 13.04 1.19
-1 4 -8 14.94 1.08
1 4 8 16.54 1.08
1 4 8 13.89 1.06
-1 4 -8 14.55 1.06
-1 4 -8 14.97 0.96
-1 4 -8 15.05 1.16
-1 4 -8 15.33 1.07
-2 4 -8 1.58 0.26
2 4 8 1.37 0.28
2 4 8 1.12 0.26
2 4 8 1.94 0.33
2 4 8 1.18 0.24
2 4 8 1.32 0.24
-2 4 -8 1.57 0.31
-2 4 -8 1.44 0.34
-2 4 -8 1.39 0.31
-2 4 -8 1.56 0.29
-2 4 -8 1.95 0.24
-2 4 -8 2.03 0.33
-2 4 -8 1.35 0.31
2 4 8 1.71 0.36
-2 4 -8 1.48 0.24
-2 4 -8 1.94 0.27
-2 4 -8 1.07 0.28
2 4 8 1.9 0.33
3 4 8 0.24 0.17
-3 4 -8 0.09 0.2
-3 4 -8 0.07 0.22
-3 4 -8 0.31 0.17
-3 4 -8 0.13 0.19
3 4 8 0.16 0.15
3 4 8 0.2 0.15
3 4 8 0.15 0.14
-3 4 -8 0.31 0.21
3 4 8 0.02 0.16
-3 4 -8 0.16 0.15
-3 4 -8 0.24 0.15
3 4 8 0.11 0.14
3 4 8 0.11 0.16
-3 4 -8 0.31 0.2
-4 4 -8 32.71 2.65
4 4 8 39.26 2.7
-4 4 -8 37.11 2.56
-4 4 -8 35.7 2.36
4 4 8 37.32 2.37
4 4 8 37.67 2.48
8 0 -9 -0.01 0.13
-8 0 9 0.04 0.12
8 0 -9 0.07 0.12
-8 0 9 0 0.11
8 0 -9 0.06 0.12
8 0 -9 0.01 0.12
8 0 -9 0.12 0.11
-8 0 9 0.11 0.12
8 0 -9 -0.01 0.1
7 0 -9 45.14 3.36
7 0 -9 51.41 3.29
7 0 -9 48.04 3.18
7 0 -9 50.47 3.1
7 0 -9 48.94 3.13
7 0 -9 53.63 3.31
-6 0 9 0.11 0.17
-6 0 9 0.06 0.12
6 0 -9 0.16 0.15
6 0 -9 0.05 0.15
6 0 -9 -0.01 0.12
-6 0 9 0.22 0.15
6 0 -9 0.04 0.19
6 0 -9 0.25 0.13
6 0 -9 -0.06 0.12
6 0 -9 0.39 0.18
6 0 -9 0.17 0.16
-6 0 9 0.01 0.16
-6 0 9 -0.07 0.15
5 0 -9 105.62 6.69
-5 0 9 124.41 8.87
5 0 -9 110.47 7.72
5 0 -9 121.61 7.15
-5 0 9 122.88 8.72
5 0 -9 106.82 9.92
5 0 -9 122.97 7.5
-5 0 9 111.16 8.72
5 0 -9 121.44 7.3
-5 0 9 107.94 9.18
5 0 -9 118.76 7.06
5 0 -9 114.74 6.57
5 0 -9 118.68 9.79
-5 0 9 118.52 8.7
5 0 -9 120.72 7.51
-5 0 9 119.09 8.74
-5 0 9 119.57 8.33
4 0 -9 0.05 0.11
4 0 -9 -0.03 0.09
-4 0 9 -0.05 0.07
-4 0 9 0.07 0.1
-4 0 9 0 0.09
4 0 -9 0.08 0.1
4 0 -9 -0.03 0.06
4 0 -9 0.03 0.08
-4 0 9 0.08 0.11
4 0 -9 0.01 0.09
-4 0 9 0.05 0.11
-4 0 9 0.06 0.09
-4 0 9 0.05 0.1
4 0 -9 0.1 0.11
4 0 -9 0.21 0.11
4 0 -9 -0.08 0.1
4 0 -9 0.03 0.09
4 0 -9 0.12 0.1
-3 0 9 212.45 15.74
-3 0 9 223.23 15.75
3 0 -9 210.95 18.03
-3 0 9 215.06 15.07
-3 0 9 213.26 15.83
-3 0 9 206.78 15.23
3 0 -9 199.11 16.01
-3 0 9 202.34 16.69
-3 0 9 219.83 16.03
-3 0 9 223.16 15.83
3 0 -9 229.06 17.74
-2 0 9 0.06 0.07
2 0 -9 -0.1 0.07
2 0 -9 -0.07 0.07
2 0 -9 0.42 0.15
2 0 -9 -0.1 0.05
2 0 -9 -0.07 0.04
-2 0 9 -0.09 0.06
-2 0 9 0.08 0.09
2 0 -9 -0.08 0.06
-2 0 9 0.03 0.08
-2 0 9 0 0.09
-2 0 9 -0.07 0.06
-2 0 9 0.19 0.1
1 0 -9 159.49 11.71
1 0 -9 176.74 13.42
-1 0 9 171.9 11.69
1 0 -9 151.03 10.96
-1 0 9 166.08 11.77
-1 0 9 159.33 12.41
-1 0 9 160.74 11.89
-1 0 9 155.63 10.61
-1 0 9 159.79 11.69
-1 0 9 150.59 11.71
1 0 -9 137.02 11.55
-1 0 9 155.44 11.76
-1 0 9 154.78 11.68
1 0 -9 168.58 11.92
0 0 -9 0.02 0.07
0 0 9 0.22 0.1
0 0 -9 0.05 0.06
0 0 9 0.15 0.08
0 0 -9 0.06 0.08
0 0 -9 -0.01 0.07
0 0 9 0.02 0.06
0 0 -9 0.02 0.05
0 0 9 0.25 0.1
0 0 9 0.28 0.1
0 0 9 0 0.06
0 0 9 0.11 0.06
0 0 9 0.26 0.09
0 0 -9 0.02 0.05
-1 0 -9 281.01 18.72
-1 0 -9 302.84 21.08
-1 0 -9 267.94 20.42
1 0 9 314.72 21.24
1 0 9 287.33 22.13
1 0 9 284.21 21.36
-1 0 -9 300.65 21.29
-1 0 -9 290.89 19.96
1 0 9 305.39 21.26
-1 0 -9 251.06 20.61
1 0 9 304.37 21.39
1 0 9 291.63 22.57
-2 0 -9 -0.05 0.08
2 0 9 0.02 0.1
-2 0 -9 -0.12 0.09
2 0 9 0.12 0.1
-2 0 -9 -0.07 0.07
-2 0 -9 -0.1 0.04
-2 0 -9 -0.09 0.08
-2 0 -9 0 0.09
2 0 9 -0.05 0.07
-2 0 -9 -0.06 0.05
2 0 9 0.04 0.11
2 0 9 -0.05 0.08
2 0 9 -0.08 0.06
-3 0 -9 309.93 20.15
3 0 9 271.52 23.82
-3 0 -9 296.1 21.28
-3 0 -9 302.03 20.66
3 0 9 310.14 22.8
-3 0 -9 305.49 18.92
-3 0 -9 295.22 20.84
3 0 9 248.65 22.99
3 0 9 259.87 22.33
3 0 9 313.26 21.47
3 0 9 305.66 21.59
4 0 9 0.21 0.12
-4 0 -9 0.02 0.1
4 0 9 0.25 0.12
4 0 9 0.45 0.16
-4 0 -9 0.38 0.17
4 0 9 0.27 0.15
-4 0 -9 0.34 0.14
-4 0 -9 0.36 0.17
4 0 9 0.33 0.15
5 0 9 2.02 0.38
5 0 9 1.42 0.23
5 0 9 1.99 0.37
-5 0 -9 2.28 0.38
-5 0 -9 1.65 0.32
-5 0 -9 2.61 0.29
-5 0 -9 2.81 0.39
5 0 9 2.51 0.46
-5 0 -9 1.63 0.32
-5 0 -9 2.09 0.36
5 0 9 2.26 0.35
5 0 9 2.05 0.39
6 0 9 0.18 0.14
-6 0 -9 0.35 0.2
-6 0 -9 0.09 0.14
-6 0 -9 0.24 0.19
6 0 9 0.11 0.17
6 0 9 0.09 0.13
6 0 9 0.21 0.16
-6 0 -9 0.27 0.17
-6 0 -9 0.21 0.17
6 0 9 0.17 0.16
-6 0 -9 0.36 0.19
6 0 9 0.18 0.11
7 0 9 95.93 6.18
-7 0 -9 102.29 5.87
7 0 9 99.6 6.44
-7 0 -9 99.96 5.87
-7 0 -9 102.86 5.98
7 0 9 91.68 6.46
-7 0 -9 89.88 6.86
7 0 9 89.68 6.29
7 0 9 103.06 6.35
7 0 9 98.13 6.06
-7 0 -9 94.81 6.02
-8 0 -9 0.13 0.11
-8 0 -9 -0.05 0.11
-8 0 -9 0.26 0.13
8 0 9 0.08 0.11
8 0 9 0.03 0.1
8 0 9 0.13 0.11
8 0 9 -0.01 0.09
-8 0 -9 0.04 0.12
8 0 9 -0.03 0.09
-8 0 -9 0.07 0.14
8 -1 -9 0.09 0.11
8 -1 -9 0.13 0.12
8 -1 -9 0.04 0.09
8 -1 -9 0 0.11
8 -1 -9 0.06 0.11
-8 1 9 -0.12 0.13
-8 1 9 0.02 0.12
-8 1 9 0.06 0.11
8 1 -9 -0.01 0.12
8 1 -9 -0.07 0.12
-8 1 9 0.06 0.12
8 1 -9 0.3 0.14
8 1 -9 0.08 0.11
-8 1 9 0.08 0.13
8 1 -9 -0.01 0.11
7 -1 -9 74.34 4.99
7 -1 -9 81.6 4.92
7 -1 -9 82.63 5.17
7 -1 -9 87.98 4.88
7 -1 -9 79.3 5.15
7 1 -9 69.39 5.26
-7 1 9 85.39 5.14
7 1 -9 68.23 5
-7 1 9 77.34 5.5
7 1 -9 79.65 4.88
7 1 -9 81.49 5.2
7 1 -9 79.27 4.94
-7 1 9 78.45 5.1
7 1 -9 82.79 5.19
-7 1 9 82.98 4.9
-7 1 9 84.24 4.97
7 1 -9 78.09 5.34
6 -1 -9 3.2 0.41
6 -1 -9 2.67 0.33
6 -1 -9 1.7 0.28
6 -1 -9 2.52 0.36
6 -1 -9 2.07 0.31
6 -1 -9 3.12 0.4
6 1 -9 2.2 0.32
6 1 -9 1.81 0.34
-6 1 9 2.35 0.39
6 1 -9 2.22 0.35
6 1 -9 1.72 0.32
6 1 -9 2.47 0.37
6 1 -9 2.99 0.43
6 1 -9 2.01 0.36
-6 1 9 2.4 0.31
6 1 -9 2.44 0.38
-5 -1 9 7.96 0.78
5 -1 -9 7.96 0.65
5 -1 -9 8.96 0.66
-5 -1 9 7.79 0.78
5 -1 -9 7.9 0.62
5 -1 -9 7.63 0.57
5 -1 -9 7.94 0.63
-5 -1 9 8.28 0.78
-5 -1 9 8.74 0.79
5 -1 -9 7.02 0.74
5 -1 -9 8.61 0.89
5 -1 -9 8.38 0.89
5 -1 -9 8.5 0.58
-5 -1 9 7.71 0.77
5 -1 -9 9.3 0.65
5 -1 -9 8.28 0.83
5 1 -9 8.24 0.65
5 1 -9 8.19 0.68
5 1 -9 8.51 0.69
5 1 -9 7.34 0.6
5 1 -9 7.79 0.69
-5 1 9 9.34 0.84
-5 1 9 7.45 0.79
5 1 -9 9.15 0.63
-5 1 9 8.38 0.82
5 1 -9 8.26 0.7
5 1 -9 7.54 0.67
5 1 -9 8.14 0.67
-5 1 9 7.68 0.75
-4 -1 9 1.5 0.23
-4 -1 9 1.8 0.35
-4 -1 9 1.63 0.28
-4 -1 9 1.75 0.31
-4 -1 9 1.38 0.28
4 -1 -9 1.19 0.28
4 -1 -9 1.24 0.28
4 -1 -9 1.18 0.25
-4 -1 9 1.83 0.34
4 -1 -9 1.26 0.24
-4 1 9 1.54 0.29
4 1 -9 1.36 0.25
4 1 -9 1.68 0.26
4 1 -9 1.18 0.24
4 1 -9 1.6 0.3
4 1 -9 1.41 0.24
-4 1 9 1.27 0.26
4 1 -9 1.18 0.23
-4 1 9 1.9 0.35
4 1 -9 1.52 0.25
-4 1 9 1.57 0.36
4 1 -9 1.42 0.26
4 1 -9 1.49 0.23
4 1 -9 1.33 0.23
4 1 -9 1.64 0.27
-4 1 9 0.91 0.23
4 1 -9 1.25 0.25
-3 -1 9 177.58 14.05
3 -1 -9 215.15 14.99
3 -1 -9 199.84 14.7
3 -1 -9 223.19 16.58
-3 -1 9 223.02 14.81
-3 -1 9 213.76 14.97
-3 -1 9 231.08 14.81
3 -1 -9 207.1 15.77
3 -1 -9 229.19 16.88
-3 -1 9 209.2 14.71
3 1 -9 173.51 11.14
3 1 -9 191.83 12.12
3 1 -9 194.15 12.38
3 1 -9 184.96 12.7
3 1 -9 166.27 11.38
-3 1 9 221.29 15.03
-3 1 9 212.33 14.75
-3 1 9 224.11 14.13
3 1 -9 175.12 11.33
3 1 -9 186.62 12.72
-3 1 9 214.39 14.76
-3 1 9 210.81 14.81
3 1 -9 167.97 11.76
3 1 -9 179.86 11.95
3 1 -9 195.37 13.13
3 1 -9 168.08 11.4
2 -1 -9 0.45 0.16
2 -1 -9 0.47 0.14
2 -1 -9 0.44 0.13
-2 -1 9 0.57 0.18
2 -1 -9 0.58 0.17
-2 -1 9 0.58 0.16
-2 -1 9 0.56 0.13
-2 -1 9 0.52 0.15
-2 -1 9 0.54 0.16
-2 -1 9 0.69 0.15
-2 -1 9 0.63 0.12
2 -1 -9 0.46 0.13
2 -1 -9 0.41 0.14
-2 1 9 0.33 0.13
-2 1 9 0.6 0.19
-2 1 9 0.59 0.17
-2 1 9 0.43 0.14
-2 1 9 0.37 0.14
1 -1 -9 554.94 38.68
1 -1 -9 478.46 34
-1 -1 9 509.64 38.62
1 -1 -9 549.36 44.28
-1 -1 9 488.36 38.63
1 -1 -9 532.23 36.26
-1 -1 9 554.24 38.61
-1 -1 9 541.02 38.84
-1 -1 9 566.16 38.88
1 -1 -9 463.39 37.11
-1 -1 9 542.04 41.03
1 -1 -9 542.52 43.5
1 -1 -9 582.37 39.38
1 -1 -9 500.58 38.26
-1 1 9 487.35 38.87
-1 1 9 518.18 38.86
-1 1 9 564.94 38.66
-1 1 9 567.24 39.4
-1 1 9 576.86 38.69
-1 1 9 443.02 41
0 -1 9 0 0.08
0 -1 -9 0.01 0.07
0 -1 -9 0.09 0.07
0 -1 9 0 0.07
0 -1 9 0.03 0.05
0 -1 -9 0.07 0.07
0 -1 9 0.12 0.08
0 -1 9 0.04 0.09
0 -1 9 0.05 0.06
0 -1 9 0.01 0.05
0 -1 -9 0.03 0.08
0 -1 -9 0.13 0.09
0 -1 9 0.02 0.08
0 -1 -9 0.07 0.08
0 1 9 0.02 0.04
0 1 9 0.06 0.07
0 1 9 0.35 0.13
0 1 9 0.08 0.07
0 1 9 -0.03 0.04
0 1 9 0.14 0.09
0 1 9 0 0.07
0 1 9 0.05 0.08
1 -1 9 18.97 1.53
1 -1 9 19.59 1.63
-1 -1 -9 17.51 1.28
-1 -1 -9 20.86 1.46
1 -1 9 20.89 1.59
1 -1 9 18.89 1.51
-1 -1 -9 17.45 1.38
1 -1 9 19.06 1.45
-1 -1 -9 15.91 1.38
-1 -1 -9 18.64 1.46
-1 -1 -9 18.89 1.37
1 -1 9 16.84 1.41
1 -1 9 19.73 1.44
-1 -1 -9 18.53 1.45
1 1 9 19.79 1.48
1 1 9 16.08 1.43
1 1 9 19.47 1.47
1 1 9 18.32 1.54
1 1 9 20.06 1.46
-1 1 -9 15.14 1.36
-2 -1 -9 39.68 2.83
-2 -1 -9 39.59 2.67
2 -1 9 37.9 3.21
2 -1 9 39.76 2.84
2 -1 9 40.11 3
-2 -1 -9 33.97 2.7
-2 -1 -9 35.71 2.74
2 -1 9 40.27 2.97
-2 -1 -9 37.7 2.74
-2 -1 -9 38.9 2.83
2 -1 9 38.71 2.82
2 -1 9 38.15 3.16
-2 -1 -9 38.93 2.52
2 -1 9 40.78 3.07
-2 1 -9 33.32 2.52
-2 1 -9 30.81 2.29
2 1 9 40.92 2.88
2 1 9 41.45 2.87
2 1 9 30.78 2.91
-2 1 -9 31.29 2.72
2 1 9 37.14 3.02
2 1 9 34.44 2.82
-3 -1 -9 89.26 5.94
3 -1 9 89.86 7.29
-3 -1 -9 99.04 5.63
3 -1 9 93.36 6.83
3 -1 9 92.16 7.06
-3 -1 -9 91.07 6.18
-3 -1 -9 79.22 6.43
3 -1 9 91.99 6.72
-3 -1 -9 94.61 6.13
3 -1 9 94.76 7.17
-3 -1 -9 85.34 6.08
-3 -1 -9 95.94 6.31
-3 -1 -9 82.29 6.31
3 -1 9 86.16 6.61
3 1 9 76.36 6.58
3 1 9 81.96 5.45
3 1 9 83.14 5.62
-3 1 -9 77.03 5.82
3 1 9 78.61 6.19
-3 1 -9 81.48 5.26
3 1 9 80.42 5.53
3 1 9 87.47 6.35
-3 1 -9 80.9 5.15
-3 1 -9 85.06 4.83
-3 1 -9 80.21 5.23
-3 1 -9 86.82 4.95
3 1 9 83.84 5.37
-3 1 -9 75.88 5.11
-3 1 -9 80.52 4.93
3 1 9 97.03 6.76
-3 1 -9 74.11 6
3 1 9 71.78 5.55
-3 1 -9 85.62 6.13
-3 1 -9 93.65 5.65
3 1 9 80.53 6.13
3 1 9 79.87 5.32
-4 -1 -9 5.08 0.51
-4 -1 -9 4.23 0.47
-4 -1 -9 4.72 0.46
4 -1 9 5.12 0.57
-4 -1 -9 4.82 0.51
-4 -1 -9 4.66 0.48
-4 -1 -9 4.17 0.43
4 -1 9 5.08 0.49
4 -1 9 4.04 0.52
4 -1 9 3.96 0.52
4 -1 9 4.58 0.52
4 -1 9 4.15 0.52
-4 1 -9 4.7 0.42
-4 1 -9 4.98 0.43
-4 1 -9 4.78 0.44
4 1 9 4.54 0.47
-4 1 -9 4.83 0.48
4 1 9 4.12 0.5
4 1 9 4.29 0.44
4 1 9 4.58 0.46
-4 1 -9 4.45 0.4
4 1 9 4.53 0.45
-4 1 -9 4.69 0.43
4 1 9 4.34 0.5
4 1 9 4 0.46
-4 1 -9 4.59 0.46
-4 1 -9 4.68 0.53
-4 1 -9 4.41 0.48
-4 1 -9 3.76 0.48
4 1 9 4.49 0.42
4 1 9 4.63 0.53
4 1 9 4.47 0.43
-4 1 -9 4.98 0.46
4 1 9 4.7 0.45
-5 -1 -9 175.45 12.9
5 -1 9 158.65 14.22
5 -1 9 166.51 13.25
5 -1 9 174.03 14.75
5 -1 9 184.29 13.84
-5 -1 -9 181.22 12.79
-5 -1 -9 162.68 12.72
-5 -1 -9 170.45 11.68
-5 -1 -9 161.59 13.12
5 1 9 156.43 13.8
-5 1 -9 187.06 10.74
-5 1 -9 185.64 11.04
5 1 9 197.21 11.23
5 1 9 180.72 11.74
5 1 9 196.26 11.56
5 1 9 190.38 11.64
-5 1 -9 173.18 12.21
5 1 9 167.47 13.27
-5 1 -9 192 10.95
-5 1 -9 164.68 12.9
-5 1 -9 183.53 12.61
-5 1 -9 196.54 10.79
-5 1 -9 183.19 10.3
5 1 9 179.55 11.79
5 1 9 201.93 11.14
-5 1 -9 179.4 12.81
5 1 9 198.29 11.38
-6 1 -9 1.98 0.31
6 1 9 2.38 0.37
6 1 9 2.24 0.32
-6 1 -9 1.85 0.37
6 1 9 2.27 0.36
6 1 9 2.86 0.45
-6 1 -9 1.87 0.36
6 1 9 2.07 0.34
-6 1 -9 2.61 0.41
-6 1 -9 1.82 0.3
-6 1 -9 2.77 0.42
6 1 9 2.12 0.36
7 -1 9 21.95 1.63
7 -1 9 23.37 1.73
-7 -1 -9 21.35 1.6
7 -1 9 25.69 1.74
7 -1 9 25.93 1.63
-7 -1 -9 24.19 1.5
7 -1 9 26.63 1.72
7 1 9 24.87 1.68
-7 1 -9 26.08 1.61
7 1 9 26.15 1.73
7 1 9 24.03 1.74
-7 1 -9 25.88 1.66
-7 1 -9 25.64 1.63
7 1 9 25.9 1.66
-7 1 -9 22.85 1.86
-7 1 -9 23.04 1.57
7 1 9 25.06 1.69
-8 -1 -9 7.55 0.52
-8 -1 -9 6.83 0.54
8 -1 9 7.93 0.58
8 -1 9 7.94 0.57
8 -1 9 7.15 0.57
-8 -1 -9 7.7 0.55
-8 -1 -9 7.44 0.53
8 1 9 7.5 0.55
-8 1 -9 6.82 0.63
8 1 9 8.39 0.56
-8 1 -9 7.16 0.54
-8 1 -9 8.12 0.57
8 1 9 6.93 0.58
8 1 9 8.08 0.59
7 -2 -9 10.57 0.8
7 -2 -9 12 0.78
7 -2 -9 10.77 0.79
7 -2 -9 11.68 0.79
7 2 -9 10.89 0.8
7 2 -9 11.14 0.81
7 2 -9 11 0.84
-7 2 9 11.12 0.84
7 2 -9 10.86 0.84
7 2 -9 9.98 0.8
-7 2 9 11.48 0.82
-7 2 9 11.74 0.84
7 2 -9 10.9 0.85
7 2 -9 10.31 0.85
-7 2 9 13.06 0.85
6 -2 -9 0.63 0.16
6 -2 -9 0.52 0.17
6 -2 -9 0.56 0.18
6 -2 -9 0.58 0.17
6 -2 -9 0.42 0.15
6 2 -9 0.31 0.18
-6 2 9 0.71 0.24
6 2 -9 0.63 0.24
-6 2 9 0.91 0.26
6 2 -9 0.32 0.21
6 2 -9 0.43 0.21
6 2 -9 0.75 0.25
-6 2 9 0.05 0.15
6 2 -9 0.54 0.23
-6 2 9 1.31 0.32
-6 2 9 0.49 0.19
6 2 -9 0.56 0.19
6 2 -9 0.57 0.24
6 2 -9 0.6 0.2
-6 2 9 1.14 0.29
5 2 -9 82.73 5.43
5 2 -9 80.43 4.77
5 2 -9 88.42 5.48
5 2 -9 80.05 5.44
-5 2 9 87.05 5.41
-5 2 9 85.26 5.39
5 2 -9 83.89 5.54
-5 2 9 89.23 5.26
-5 2 9 88.98 5.2
5 2 -9 79.38 5.29
5 2 -9 84.52 5.16
-5 2 9 80.59 5.14
5 2 -9 86.49 5.24
5 2 -9 75.34 5.18
5 2 -9 77.25 5.31
5 2 -9 74.29 4.84
-5 2 9 89.23 4.88
5 2 -9 82.78 5.6
4 -2 -9 13.32 1.36
4 -2 -9 13.08 1.2
-4 -2 9 13.51 1.18
-4 -2 9 13.62 1.18
-4 -2 9 14.5 1.2
-4 -2 9 13.05 1.2
4 -2 -9 11.81 1.15
4 -2 -9 12.68 1.31
-4 2 9 12.62 1
4 2 -9 14.07 1.06
4 2 -9 13.06 0.96
4 2 -9 13 0.96
4 2 -9 14.15 1.06
-4 2 9 13.94 1.3
4 2 -9 15.59 1.1
-4 2 9 13.98 1.3
-4 2 9 12.71 1.02
4 2 -9 14.21 0.99
4 2 -9 13.9 0.98
-4 2 9 14.18 1.07
4 2 -9 15.17 1.05
-4 2 9 14.49 1.07
-4 2 9 12.62 0.96
4 2 -9 13.27 0.96
4 2 -9 13.46 0.93
-4 2 9 14.47 1.11
4 2 -9 13.17 1.08
4 2 -9 13.45 0.93
4 2 -9 13.45 1
4 2 -9 14.58 1.09
-4 2 9 12.9 1.05
4 2 -9 15.14 1.05
4 2 -9 15.39 1.07
4 2 -9 14.62 1.01
4 2 -9 12.45 0.97
4 2 -9 12.2 0.91
3 -2 -9 84.31 6.45
-3 -2 9 84.72 6.43
3 -2 -9 92.04 7.4
3 -2 -9 87.5 6.58
-3 -2 9 88.38 6.44
3 -2 -9 78.84 7.23
-3 -2 9 90.82 6.5
-3 -2 9 88.88 6.48
-3 -2 9 90.59 6.86
3 -2 -9 77.73 6.02
3 2 -9 89.02 5.37
-3 2 9 83.83 5.54
-3 2 9 85.4 6.55
3 2 -9 84.81 5.03
3 2 -9 83.27 5.05
3 2 -9 85.68 5.68
3 2 -9 88.26 5.3
3 2 -9 91.03 5.78
3 2 -9 79.86 5
3 2 -9 88.19 5.23
3 2 -9 92.65 5.63
-3 2 9 80.35 5.3
-3 2 9 94.26 6.67
3 2 -9 91.1 4.96
3 2 -9 83.64 5.2
3 2 -9 83.72 4.88
3 2 -9 80.84 5.18
-3 2 9 79.96 5.02
-3 2 9 83.38 5.36
-3 2 9 72.18 6.48
3 2 -9 88.51 5.58
3 2 -9 82.84 5.01
3 2 -9 85.86 5.49
3 2 -9 86.33 5.49
-3 2 9 81.43 5.32
3 2 -9 91.77 5.61
3 2 -9 94.04 5.38
-3 2 9 80.58 5.46
3 2 -9 89.2 5.43
3 2 -9 90.7 5.64
3 2 -9 88.32 6.22
3 2 -9 85.39 5.02
3 2 -9 93.52 5.74
3 2 -9 85.8 5
-3 2 9 76.12 5.54
3 2 -9 92.93 5.31
-2 -2 9 10.58 0.88
2 -2 -9 10.62 1.03
2 -2 -9 10.82 0.93
2 -2 -9 10.94 1
-2 -2 9 10.01 0.91
-2 -2 9 10.42 0.89
-2 -2 9 10.82 0.87
2 -2 -9 9.39 0.77
-2 -2 9 11.31 0.91
-2 -2 9 10.99 0.97
2 -2 -9 10.74 0.91
2 -2 -9 10.19 0.84
2 -2 -9 9.99 0.87
-2 2 9 9.33 0.94
2 2 -9 11.25 0.89
2 2 -9 10.74 0.76
-2 2 9 8.83 0.78
2 2 -9 10.69 0.8
2 2 -9 10.25 0.88
2 2 -9 10.89 0.75
-2 2 9 8.44 0.75
2 2 -9 10.87 0.85
-2 2 9 8.72 0.87
2 2 -9 10.86 0.76
-2 2 9 8.17 0.89
2 2 -9 11.13 0.78
-2 2 9 9.64 0.74
2 2 -9 10.66 0.73
2 2 -9 10.86 0.75
2 2 -9 9.92 0.81
2 2 -9 10.49 0.76
-2 2 9 9.62 0.81
2 2 -9 10.89 0.77
2 2 -9 10.45 0.78
2 2 -9 10.41 0.78
-2 2 9 10.74 0.97
2 2 -9 11.11 0.82
-2 2 9 9.53 0.81
2 2 -9 10.18 0.81
2 2 -9 9.98 0.75
2 2 -9 9.6 0.72
2 2 -9 10.55 0.76
2 2 -9 11.27 0.79
-2 2 9 8.68 0.77
-2 2 9 8.26 0.86
2 2 -9 9.68 0.75
2 2 -9 9.99 0.75
2 2 -9 11.16 0.81
2 2 -9 9.9 0.76
2 2 -9 11.16 0.78
2 2 -9 11.15 0.77
2 2 -9 10.35 0.79
2 2 -9 9.68 0.75
-2 2 9 10.51 0.78
2 2 -9 10.84 0.75
2 2 -9 11.28 0.75
2 2 -9 10.49 0.71
2 2 -9 10.8 0.79
2 2 -9 11.12 0.84
2 2 -9 10.49 0.87
2 2 -9 10.47 0.88
2 2 -9 9.78 0.78
-1 -2 9 6.91 0.57
1 -2 -9 5.88 0.61
-1 -2 9 6.93 0.52
-1 -2 9 5.19 0.57
1 -2 -9 5.84 0.55
-1 -2 9 6.42 0.58
-1 -2 9 5.28 0.51
1 -2 -9 5.62 0.55
1 -2 -9 5.36 0.51
1 -2 -9 6.11 0.55
-1 -2 9 5.47 0.53
1 -2 -9 5.54 0.48
1 2 -9 5.46 0.54
-1 2 9 4.93 0.49
1 2 -9 4.88 0.47
1 2 -9 5.57 0.43
1 2 -9 6.07 0.51
-1 2 9 3.91 0.52
1 2 -9 6.05 0.54
1 2 -9 5.92 0.49
1 2 -9 4.82 0.46
-1 2 9 5.19 0.45
1 2 -9 5.1 0.47
1 2 -9 5.56 0.52
1 2 -9 6.39 0.49
1 2 -9 5.23 0.46
1 2 -9 5.48 0.49
-1 2 9 6 0.58
1 2 -9 5.57 0.56
1 2 -9 5.59 0.48
1 2 -9 5.7 0.46
1 2 -9 6 0.49
1 2 -9 5.59 0.51
1 2 -9 5.39 0.47
1 2 -9 5.81 0.47
1 2 -9 5.41 0.48
1 2 -9 5.24 0.45
-1 2 9 4.96 0.55
1 2 -9 5.41 0.49
1 2 -9 5.8 0.54
1 2 -9 5.53 0.48
1 2 -9 6.61 0.49
-1 2 9 5.55 0.48
1 2 -9 5.18 0.47
1 2 -9 7.15 0.54
-1 2 9 5.59 0.56
1 2 -9 5.3 0.47
1 2 -9 5.4 0.45
1 2 -9 4.95 0.49
-1 2 9 4.7 0.53
-1 2 9 5.25 0.5
-1 2 9 5.11 0.46
1 2 -9 5.17 0.46
1 2 -9 6.43 0.5
1 2 -9 5.16 0.49
1 2 -9 4.9 0.46
1 2 -9 5.19 0.46
-1 2 9 4.57 0.48
1 2 -9 5.99 0.48
1 2 -9 6.57 0.48
1 2 -9 5.74 0.47
1 2 -9 5.1 0.46
1 2 -9 6.12 0.51
0 -2 9 12.67 1.01
0 -2 -9 8.55 0.84
0 -2 -9 8.91 0.78
0 -2 9 12.2 0.95
0 -2 -9 9.91 0.84
0 -2 -9 9.69 0.89
0 -2 -9 9.05 0.88
0 -2 9 12.08 0.94
0 -2 9 12.27 0.9
0 -2 9 11.86 0.81
0 -2 9 12.38 0.9
0 -2 9 12.34 1.04
0 -2 -9 8.98 0.88
0 2 -9 12.09 0.83
0 2 -9 9.94 0.73
0 2 -9 10.96 0.89
0 2 -9 10.17 0.78
0 2 -9 10.64 0.72
0 2 9 8.49 0.77
0 2 -9 10.06 0.73
0 2 -9 10.32 0.75
0 2 -9 10.83 0.75
0 2 -9 10.01 0.76
0 2 -9 10.11 0.87
0 2 -9 11.76 0.74
0 2 9 8.24 0.73
0 2 9 7.82 0.86
0 2 9 8.6 0.9
0 2 -9 10.85 0.71
0 2 9 8.83 0.78
0 2 -9 11.96 0.78
0 2 -9 11.32 0.78
0 2 -9 12.35 0.77
0 2 -9 10.28 0.68
0 2 -9 9.6 0.87
0 2 -9 11.16 0.76
0 2 -9 11.7 0.78
0 2 -9 10.43 0.75
0 2 -9 10.54 0.74
0 2 -9 10.67 0.75
0 2 -9 11.36 0.82
0 2 -9 11.31 0.8
0 2 9 8.98 0.7
0 2 -9 10.52 0.8
0 2 -9 9.85 0.76
0 2 -9 10.51 0.74
0 2 -9 10.69 0.85
0 2 -9 11.87 0.77
0 2 -9 11.43 0.78
0 2 -9 10.08 0.77
0 2 -9 11.02 0.74
0 2 9 7.84 0.87
0 2 -9 9.49 0.75
0 2 -9 11.53 0.81
-1 -2 -9 260.06 17.77
1 -2 9 252.1 19.74
1 -2 9 252.79 18.48
-1 -2 -9 223.24 18.04
1 -2 9 252.24 17.73
1 -2 9 244.49 20.03
-1 -2 -9 257.89 15.65
-1 -2 -9 260.16 17.6
-1 -2 -9 236.81 17.24
-1 -2 -9 256.15 17.08
1 -2 9 246.49 19.08
-1 -2 -9 257.42 16.67
-1 2 -9 220.47 15.13
-1 2 -9 251.6 15.17
-1 2 -9 224.66 14.51
-1 2 -9 241.45 13.49
-1 2 -9 237.66 14.44
-1 2 -9 235.28 13.42
-1 2 -9 245.98 13.77
-1 2 -9 219.71 14.98
-1 2 -9 244.36 14.42
1 2 9 214.39 14.99
-1 2 -9 245.45 13.81
-1 2 -9 248.08 13.69
-1 2 -9 243.21 14.31
1 2 9 247.54 15.18
1 2 9 218.67 15.73
-1 2 -9 247.43 13.82
1 2 9 235.44 14.53
-1 2 -9 247.52 14.74
-1 2 -9 250.46 14.35
1 2 9 205.42 15.4
-1 2 -9 221.29 15.07
1 2 9 228.2 17.2
1 2 9 244.27 17.87
-1 2 -9 243.06 14.64
-1 2 -9 239.11 14.19
-1 2 -9 244.88 14.62
-1 2 -9 244.71 13.82
1 2 9 255.11 17.18
-1 2 -9 245.03 16.36
-1 2 -9 237.37 13.72
1 2 9 252.89 15.04
-1 2 -9 217.86 13.64
-1 2 -9 256.04 16.87
1 2 9 238.87 17.42
-1 2 -9 251.75 14.9
2 -2 9 17.25 1.43
-2 -2 -9 18.05 1.23
-2 -2 -9 18.18 1.38
-2 -2 -9 15.73 1.34
-2 -2 -9 16.67 1.34
2 -2 9 18 1.51
-2 -2 -9 17.48 1.29
2 -2 9 18.22 1.59
-2 -2 -9 18.14 1.34
2 -2 9 17.7 1.54
-2 -2 -9 16.58 1.32
2 -2 9 15.33 1.59
2 -2 9 17.34 1.35
-2 2 -9 15.8 1.13
-2 2 -9 17.08 1.19
2 2 9 14.81 1.19
-2 2 -9 17.22 1.34
-2 2 -9 17.35 1.19
-2 2 -9 18.01 1.16
-2 2 -9 15.83 1.12
2 2 9 15.84 1.25
2 2 9 16.99 1.34
-2 2 -9 17.1 1.1
2 2 9 17.25 1.24
2 2 9 17.25 1.37
-2 2 -9 16.76 1.17
-2 2 -9 14.56 1.09
2 2 9 13.89 1.43
2 2 9 17.5 1.17
2 2 9 17.2 1.37
2 2 9 15.37 1.19
2 2 9 14.87 1.15
-2 2 -9 16.65 1.13
-2 2 -9 18.47 1.3
-2 2 -9 16.71 1.11
-2 2 -9 16.15 1.07
-2 2 -9 16.66 1.18
3 -2 9 88.23 6.84
3 -2 9 89.03 7.06
3 -2 9 85.86 6.59
3 -2 9 85.33 6.5
-3 -2 -9 80.17 6.08
3 -2 9 84.77 7.17
-3 -2 -9 82.77 6.29
-3 -2 -9 90.48 6.14
-3 -2 -9 74.31 5.91
3 -2 9 82.79 7.3
-3 -2 -9 87.3 5.61
-3 -2 -9 83.57 6.18
-3 2 -9 85.27 4.99
3 2 9 88.59 6.17
3 2 9 81.17 5.56
3 2 9 72 5.31
-3 2 -9 87.22 5.22
-3 2 -9 85.86 5.86
-3 2 -9 83.97 5.3
-3 2 -9 87.41 6.06
-3 2 -9 81.54 4.94
-3 2 -9 89.3 5.18
-3 2 -9 85.73 4.85
3 2 9 86.07 6.12
3 2 9 75.56 5.46
3 2 9 86.85 5.41
-3 2 -9 80.97 5.42
-3 2 -9 90.3 5.29
3 2 9 90.38 6.24
3 2 9 88.27 5.67
-4 -2 -9 12.69 1.09
4 -2 9 10.6 1.11
-4 -2 -9 11.62 1.06
4 -2 9 11.78 1.24
4 -2 9 10.96 1.11
-4 -2 -9 12.41 1.08
4 -2 9 10.89 1.2
4 -2 9 12.03 1.18
4 -2 9 11.7 1.26
-4 -2 -9 11.41 1.06
-4 -2 -9 12.58 0.98
-4 -2 -9 10.94 1.1
4 2 9 11.41 0.96
4 2 9 14.05 1.03
-4 2 -9 14.3 0.99
4 2 9 13.87 1
4 2 9 10.78 0.99
-4 2 -9 13.51 0.97
-4 2 -9 12.29 1.02
-4 2 -9 14.21 1
-4 2 -9 13.06 1.09
4 2 9 13.93 1.02
-4 2 -9 13.22 0.91
4 2 9 13 1.06
4 2 9 13.8 0.98
4 2 9 13.01 1.06
-4 2 -9 11.09 0.92
-4 2 -9 12.57 0.95
5 2 9 2.14 0.35
-5 2 -9 2.58 0.38
5 2 9 2.49 0.38
-5 2 -9 1.73 0.36
5 2 9 2.24 0.39
5 2 9 1.93 0.32
-5 2 -9 1.77 0.4
-5 2 -9 2.37 0.37
5 2 9 2.1 0.41
-5 2 -9 4.16 0.52
-5 2 -9 3.18 0.46
5 2 9 2.79 0.43
5 2 9 3.36 0.45
-6 2 -9 8.81 0.7
-6 2 -9 8.69 0.81
6 2 9 9.6 0.73
-6 2 -9 8.22 0.75
6 2 9 8.29 0.67
-6 2 -9 9.06 0.72
-6 2 -9 7.07 0.66
6 2 9 9.2 0.73
-6 2 -9 9.54 0.71
6 2 9 9.16 0.75
6 2 9 7.49 0.67
6 2 9 9.05 0.72
7 -2 9 62.24 4.1
7 -2 9 63.25 4.01
7 -2 9 52.9 3.8
7 -2 9 66.15 4.08
7 -2 9 54.36 3.94
-7 2 -9 63.12 4.39
7 2 9 62.94 3.94
-7 2 -9 67.58 3.84
-7 2 -9 56.13 4.22
-7 2 -9 64.68 3.73
7 2 9 62.84 4.03
7 2 9 62.05 3.99
-7 2 -9 54.99 3.76
7 2 9 66.14 3.86
6 -3 -9 0.27 0.11
6 -3 -9 0.3 0.11
6 -3 -9 0.29 0.13
6 -3 -9 0.32 0.12
6 3 -9 0.62 0.2
6 3 -9 0.13 0.15
-6 3 9 0.13 0.15
6 3 -9 0.13 0.15
6 3 -9 0.2 0.13
6 3 -9 0.15 0.16
-6 3 9 0.32 0.15
-6 3 9 0.19 0.14
6 3 -9 0.4 0.15
6 3 -9 0.36 0.18
-6 3 9 0.24 0.15
6 3 -9 0.18 0.16
6 3 -9 0.37 0.17
5 3 -9 0.73 0.22
-5 3 9 0.34 0.24
-5 3 9 0.68 0.26
5 3 -9 0.57 0.24
5 3 -9 0.29 0.21
5 3 -9 0.35 0.2
5 3 -9 0.63 0.18
5 3 -9 0.85 0.2
5 3 -9 0.79 0.24
5 3 -9 0.56 0.17
5 3 -9 0.55 0.2
5 3 -9 0.46 0.2
5 3 -9 1.11 0.27
-5 3 9 0.67 0.23
-5 3 9 0.59 0.2
5 3 -9 0.9 0.25
5 3 -9 0.4 0.19
-5 3 9 0.76 0.25
4 3 -9 16.24 1.22
-4 3 9 16.72 1.29
4 3 -9 15.64 1.08
-4 3 9 14.92 1.17
4 3 -9 16.4 1.17
-4 3 9 14.55 1.15
4 3 -9 14.88 1.11
-4 3 9 17.02 1.15
4 3 -9 15.73 1.14
4 3 -9 16.24 1.13
4 3 -9 15.06 1.21
-4 3 9 17.05 1.22
-4 3 9 15.93 1.19
4 3 -9 17.03 1.16
4 3 -9 15.77 1.25
4 3 -9 14.07 1.23
4 3 -9 16.62 1.2
4 3 -9 17.48 1.27
4 3 -9 16.92 1.15
4 3 -9 14.72 1.1
4 3 -9 16.25 1.23
4 3 -9 17.49 1.21
-3 3 9 14.62 1.06
3 3 -9 14.25 1.05
3 3 -9 14.7 1.08
3 3 -9 12.67 0.95
3 3 -9 13.32 0.98
3 3 -9 13.94 0.95
-3 3 9 11.75 0.98
3 3 -9 13.77 1
3 3 -9 13.05 0.98
3 3 -9 16.03 1.04
3 3 -9 13.91 1
3 3 -9 12.7 1.08
3 3 -9 13.54 1.06
-3 3 9 12.43 1.02
3 3 -9 14 1.02
3 3 -9 13.54 1.09
3 3 -9 12.81 1.04
-3 3 9 12.9 1.05
3 3 -9 11.66 1.01
-3 3 9 12.13 1.09
3 3 -9 11.83 0.95
3 3 -9 13.14 1.12
3 3 -9 13.48 1.07
-3 3 9 12.91 1.01
3 3 -9 13.68 1.02
3 3 -9 13.54 1.09
3 3 -9 12.45 0.98
-3 3 9 12.83 0.99
3 3 -9 12.72 0.97
2 3 -9 7.21 0.66
2 3 -9 7.12 0.63
2 3 -9 6.12 0.63
2 3 -9 6.91 0.61
2 3 -9 6.94 0.58
-2 3 9 6.43 0.67
2 3 -9 6.19 0.65
2 3 -9 6.81 0.61
2 3 -9 7.29 0.6
2 3 -9 6.15 0.61
2 3 -9 6.38 0.61
-2 3 9 6.49 0.62
2 3 -9 7.16 0.61
2 3 -9 6.97 0.6
2 3 -9 6.95 0.6
2 3 -9 6.64 0.6
2 3 -9 7 0.68
2 3 -9 7.01 0.6
-2 3 9 6.96 0.65
2 3 -9 7.33 0.63
2 3 -9 7.52 0.66
2 3 -9 6.62 0.59
-2 3 9 5.77 0.59
2 3 -9 7.22 0.63
-2 3 9 5.8 0.64
2 3 -9 6.79 0.7
-2 3 9 5.88 0.67
2 3 -9 6.84 0.68
2 3 -9 6.96 0.64
2 3 -9 7.11 0.62
2 3 -9 6.94 0.67
2 3 -9 7.08 0.68
2 3 -9 7.09 0.61
2 3 -9 6.63 0.65
2 3 -9 6.96 0.67
2 3 -9 6.02 0.59
2 3 -9 7.16 0.67
2 3 -9 7.55 0.62
2 3 -9 6.8 0.62
2 3 -9 7.21 0.6
2 3 -9 7.09 0.64
-2 3 9 6.53 0.62
2 3 -9 6.25 0.66
2 3 -9 6.9 0.63
1 -3 -9 83.83 6.87
1 -3 -9 84.73 7.07
1 -3 -9 84.6 6.29
1 -3 -9 88.91 6.72
1 -3 -9 79.72 7.24
-1 3 9 85.25 6.07
1 3 -9 98.17 6.9
1 3 -9 93.59 5.82
-1 3 9 90.91 6.09
1 3 -9 105.46 6.37
1 3 -9 99.15 5.95
1 3 -9 97.47 6.81
1 3 -9 97.22 6.9
1 3 -9 100.64 6.26
-1 3 9 89.79 6.16
1 3 -9 95.44 5.5
1 3 -9 99.22 6.21
1 3 -9 95.08 5.58
1 3 -9 94.94 5.47
1 3 -9 98.77 5.91
1 3 -9 99 6.03
1 3 -9 100 5.97
1 3 -9 98.48 6.22
1 3 -9 99.23 5.59
1 3 -9 97.1 5.82
1 3 -9 94.77 6.03
-1 3 9 93.29 5.55
-1 3 9 85.12 7
1 3 -9 96.41 5.63
-1 3 9 94.97 5.92
1 3 -9 95.68 5.9
1 3 -9 99.46 5.62
1 3 -9 100.45 5.93
1 3 -9 98.48 6.08
1 3 -9 98.99 5.59
1 3 -9 95.73 6.4
1 3 -9 96.34 5.82
1 3 -9 99.3 5.61
1 3 -9 94.22 6.1
-1 3 9 85.96 5.79
1 3 -9 101.15 6.11
1 3 -9 96.08 6.31
1 3 -9 95.46 5.85
1 3 -9 94.45 6.58
1 3 -9 95.98 5.84
1 3 -9 105.03 5.82
1 3 -9 96.72 5.79
-1 3 9 83.05 6.91
1 3 -9 94.39 6.98
1 3 -9 96.43 6.2
1 3 -9 105.41 5.48
1 3 -9 102.33 6.06
0 -3 -9 2.18 0.36
0 -3 -9 2.5 0.47
0 -3 -9 1.33 0.32
0 -3 9 1.05 0.33
0 -3 -9 1.85 0.41
0 -3 9 1.08 0.38
0 -3 9 0.92 0.33
0 -3 -9 1.49 0.32
0 3 9 1.89 0.32
0 3 -9 2.39 0.4
0 3 9 1.75 0.37
0 3 -9 2.14 0.38
0 3 -9 1.82 0.36
0 3 9 2.57 0.38
0 3 -9 2.07 0.34
0 3 -9 2.19 0.37
0 3 9 2.18 0.33
0 3 9 2.09 0.36
0 3 -9 1.85 0.28
0 3 -9 2.23 0.32
0 3 9 1.89 0.38
0 3 -9 2.59 0.41
0 3 9 2.06 0.43
0 3 -9 2.06 0.32
0 3 -9 2.06 0.35
0 3 -9 2.38 0.34
0 3 -9 1.9 0.35
0 3 -9 2.08 0.32
0 3 -9 2.63 0.36
0 3 9 1.55 0.34
0 3 -9 2.54 0.37
0 3 -9 2.76 0.43
0 3 -9 2.26 0.34
0 3 9 1.84 0.32
0 3 -9 2.02 0.36
0 3 -9 1.49 0.27
0 3 -9 2.78 0.43
0 3 -9 2.14 0.33
0 3 -9 1.75 0.39
0 3 -9 2.46 0.38
0 3 -9 2.3 0.39
1 -3 9 5.9 0.8
-1 -3 -9 7.1 0.8
-1 -3 -9 7.6 0.76
-1 -3 -9 7.45 0.82
-1 -3 -9 8.03 0.82
-1 -3 -9 9.77 0.78
-1 3 -9 8.25 0.6
1 3 9 7.6 0.68
1 3 9 9.06 0.83
-1 3 -9 8.21 0.71
1 3 9 8.54 0.71
-1 3 -9 8.86 0.7
1 3 9 8.28 0.61
1 3 9 8.31 0.85
-1 3 -9 8.79 0.75
-1 3 -9 8.72 0.7
-1 3 -9 9.02 0.73
-1 3 -9 9.42 0.75
-1 3 -9 8.7 0.73
-1 3 -9 8.25 0.66
1 3 9 9.54 0.68
-1 3 -9 8.66 0.69
-1 3 -9 7.05 0.65
-1 3 -9 8.31 0.66
-1 3 -9 8.25 0.81
1 3 9 9.58 0.85
1 3 9 8.64 0.71
-1 3 -9 8.87 0.69
-1 3 -9 8.4 0.78
-1 3 -9 8.4 0.72
1 3 9 8.63 0.75
-1 3 -9 8.27 0.69
-1 3 -9 7.18 0.64
-1 3 -9 8.29 0.64
-1 3 -9 8.52 0.67
-1 3 -9 7.92 0.63
-2 3 -9 26.91 1.78
2 3 9 27.47 2.14
-2 3 -9 28.59 1.87
2 3 9 26.34 1.83
2 3 9 26.39 1.96
2 3 9 24.85 1.85
-2 3 -9 28.26 1.7
-2 3 -9 27.86 1.84
-2 3 -9 26.9 1.71
-2 3 -9 25.1 2.09
-2 3 -9 26.9 1.81
2 3 9 27.57 1.83
-2 3 -9 27.22 1.75
-2 3 -9 25.31 1.68
-2 3 -9 27.72 1.76
-2 3 -9 27.97 1.86
-2 3 -9 26.04 1.83
2 3 9 26.32 2.16
-2 3 -9 26.23 2.01
2 3 9 28.55 2.12
-2 3 -9 27.33 1.75
-2 3 -9 28.25 1.82
2 3 9 22.99 1.88
-3 3 -9 20.95 1.45
-3 3 -9 22.27 1.55
3 3 9 21.13 1.46
-3 3 -9 20.26 1.37
3 3 9 22.12 1.62
3 3 9 21.22 1.59
-3 3 -9 21.29 1.52
-3 3 -9 20.01 1.64
3 3 9 22.61 1.71
3 3 9 20.75 1.54
-3 3 -9 22.47 1.53
-3 3 -9 20.77 1.72
-3 3 -9 21.87 1.5
3 3 9 17.57 1.52
-3 3 -9 21.06 1.42
-3 3 -9 22.12 1.52
3 3 9 23.22 1.76
3 3 9 24.16 1.77
-4 3 -9 0.25 0.2
4 3 9 -0.02 0.16
4 3 9 0.08 0.15
4 3 9 0 0.15
4 3 9 0.12 0.17
-4 3 -9 0.1 0.2
-4 3 -9 0.2 0.24
-4 3 -9 0.1 0.18
4 3 9 0.16 0.15
-4 3 -9 0.15 0.18
-4 3 -9 0.3 0.22
4 3 9 0.63 0.22
4 3 9 0.16 0.2
4 3 9 -0.1 0.2
-4 3 -9 -0.14 0.19
-4 3 -9 0.17 0.18
5 3 9 62.2 4.53
-5 3 -9 60.02 4.34
5 3 9 64.2 4.17
5 3 9 63.31 4.13
-5 3 -9 60.81 4.5
-5 3 -9 63.63 3.83
-5 3 -9 65.33 3.95
5 3 9 64.47 4.07
5 3 9 60.72 3.95
-5 3 -9 57.92 4
5 3 9 63.6 3.99
-5 3 -9 61.69 3.88
-6 3 -9 1.2 0.23
-6 3 -9 1.84 0.29
-6 3 -9 1.48 0.26
6 3 9 1.58 0.23
6 3 9 1.36 0.21
6 3 9 1.62 0.24
6 3 9 1.41 0.2
-6 3 -9 1.17 0.22
-4 4 9 0.3 0.17
-4 4 9 0.16 0.14
-4 4 9 0.2 0.13
-3 4 9 13.01 0.85
-3 4 9 10.38 0.85
-3 4 9 11.69 0.91
-3 4 9 11.9 0.88
-3 4 9 13.46 0.85
-3 4 9 12.23 0.89
-2 4 9 9.26 0.65
-2 4 9 8.35 0.67
-2 4 9 7.49 0.65
-2 4 9 7.67 0.67
-2 4 9 6.98 0.6
-2 4 9 9.23 0.7
-2 4 9 7.15 0.7
-1 4 9 4.57 0.52
-1 4 9 5.27 0.45
-1 4 9 5 0.48
-1 4 9 4.78 0.48
-1 4 9 4.29 0.51
-1 4 9 4.5 0.49
-1 4 9 5.12 0.48
0 4 -9 6.85 0.59
0 4 -9 5.89 0.55
0 4 -9 7.24 0.56
0 4 9 5.57 0.55
0 4 -9 6.78 0.55
0 4 -9 5.76 0.61
0 4 -9 6.7 0.52
0 4 -9 6.93 0.59
0 4 9 5.35 0.61
0 4 -9 5.72 0.53
0 4 9 6.16 0.49
0 4 9 5.03 0.62
0 4 -9 5.43 0.54
0 4 -9 5.97 0.48
0 4 9 7.14 0.56
0 4 9 6.05 0.65
0 4 9 5.87 0.56
0 4 -9 6.89 0.61
-1 4 -9 41.89 2.89
1 4 9 39.57 2.55
1 4 9 45.44 2.69
-1 4 -9 37.01 2.4
-1 4 -9 42.45 2.48
-1 4 -9 40.09 2.6
-1 4 -9 42.92 2.67
-1 4 -9 42.15 2.63
-1 4 -9 41.58 2.54
-1 4 -9 41.42 2.57
1 4 9 34.8 3.03
1 4 9 41.65 2.69
-1 4 -9 37.8 2.64
-1 4 -9 39.26 2.58
1 4 9 36.47 2.77
-1 4 -9 36.05 2.97
1 4 9 41.26 3.11
1 4 9 45.94 3.08
-1 4 -9 44.34 2.63
-2 4 -9 4.69 0.47
-2 4 -9 4.44 0.39
2 4 9 4.18 0.41
-2 4 -9 5.68 0.52
-2 4 -9 4.49 0.42
-2 4 -9 4.66 0.45
2 4 9 4.72 0.43
2 4 9 4.07 0.48
-2 4 -9 4.01 0.46
2 4 9 5.11 0.53
2 4 9 4.64 0.53
-2 4 -9 4.37 0.51
-2 4 -9 4.9 0.44
-2 4 -9 4.43 0.42
2 4 9 5.27 0.52
2 4 9 4.01 0.43
-2 4 -9 4.47 0.47
3 4 9 14.3 1.08
3 4 9 14.87 1.12
3 4 9 12.64 0.96
3 4 9 13.27 1.04
-3 4 -9 14.87 1.05
-3 4 -9 12.45 1.08
3 4 9 10.53 0.96
-3 4 -9 12.34 0.94
-3 4 -9 14.72 0.96
-3 4 -9 14.35 0.97
3 4 9 15.88 1.14
-3 4 -9 13.53 0.93
-3 4 -9 12.98 0.91
8 0 -10 36.75 2.24
8 0 -10 30.94 2.27
-8 0 10 32.25 2.3
8 0 -10 40.38 2.39
8 0 -10 37.09 2.26
-8 0 10 35.06 2.51
-8 0 10 37.54 2.24
8 0 -10 36.35 2.36
7 0 -10 0.11 0.12
7 0 -10 0.02 0.14
7 0 -10 0 0.14
7 0 -10 0.03 0.1
7 0 -10 0.28 0.16
7 0 -10 0.09 0.09
7 0 -10 0.05 0.13
6 0 -10 86.05 5.66
6 0 -10 90.79 5.42
6 0 -10 91.84 5.69
6 0 -10 83.18 5.83
6 0 -10 86.78 5.51
6 0 -10 91.29 5.35
6 0 -10 82.39 4.95
-5 0 10 0.38 0.18
5 0 -10 0.09 0.11
-5 0 10 0.12 0.12
5 0 -10 0.19 0.14
-5 0 10 0.14 0.13
5 0 -10 0.13 0.12
5 0 -10 -0.04 0.11
5 0 -10 0.06 0.13
-5 0 10 0.03 0.13
5 0 -10 0.07 0.12
-5 0 10 0.37 0.19
-5 0 10 0.16 0.13
5 0 -10 0.02 0.1
5 0 -10 0.03 0.15
5 0 -10 0.21 0.16
5 0 -10 0.09 0.13
-5 0 10 0.19 0.15
5 0 -10 0.09 0.14
-4 0 10 1.3 0.26
4 0 -10 2.02 0.38
4 0 -10 1.97 0.3
4 0 -10 1.52 0.21
4 0 -10 1.57 0.23
4 0 -10 2.01 0.28
4 0 -10 1.38 0.23
-4 0 10 1.78 0.27
4 0 -10 1.71 0.25
-4 0 10 1.81 0.27
-4 0 10 1.73 0.28
4 0 -10 1.88 0.25
-4 0 10 1.68 0.24
4 0 -10 2.02 0.26
-4 0 10 2.5 0.4
-4 0 10 1.89 0.27
4 0 -10 1.72 0.24
4 0 -10 1.69 0.23
-3 0 10 0.09 0.09
3 0 -10 0.01 0.08
-3 0 10 0.39 0.14
3 0 -10 0.17 0.11
3 0 -10 -0.02 0.1
-3 0 10 0.12 0.11
-3 0 10 0.08 0.09
3 0 -10 0.17 0.1
-3 0 10 -0.01 0.08
3 0 -10 0.19 0.1
3 0 -10 0.1 0.08
3 0 -10 0.05 0.1
3 0 -10 -0.04 0.05
3 0 -10 0 0.1
3 0 -10 0.03 0.09
-3 0 10 0.48 0.16
3 0 -10 0.15 0.13
-3 0 10 0.09 0.1
-2 0 10 278.85 22.66
2 0 -10 291.15 21.75
2 0 -10 268.22 21.35
-2 0 10 296.87 21.47
-2 0 10 305.17 21.49
-2 0 10 266.3 21.33
-2 0 10 302.82 21.75
-2 0 10 298.07 21.35
2 0 -10 311.83 24.49
-2 0 10 308.05 21.36
-2 0 10 276.5 20.45
-1 0 10 -0.14 0.07
1 0 -10 -0.16 0.06
1 0 -10 -0.12 0.06
-1 0 10 -0.15 0.05
-1 0 10 -0.12 0.07
-1 0 10 -0.08 0.07
-1 0 10 -0.1 0.07
1 0 -10 -0.12 0.03
1 0 -10 -0.07 0.08
-1 0 10 -0.08 0.07
-1 0 10 -0.13 0.07
1 0 -10 -0.13 0.06
1 0 -10 -0.09 0.09
-1 0 10 -0.07 0.06
-1 0 10 -0.12 0.06
0 0 10 322.92 22.42
0 0 10 330.2 22.26
0 0 10 283.02 22.26
0 0 -10 312.55 22.3
0 0 -10 264.41 19.58
0 0 10 346.25 22.4
0 0 10 299.13 20.22
0 0 -10 266.6 22.05
0 0 10 298.78 23.18
0 0 10 301.24 22.31
0 0 -10 302.4 20.9
0 0 10 293.07 23.64
0 0 10 324.34 22.26
0 0 -10 311.36 22.7
-1 0 -10 0.07 0.08
1 0 10 0.12 0.09
-1 0 -10 0.03 0.07
-1 0 -10 0.08 0.08
1 0 10 0.09 0.09
1 0 10 0.12 0.09
1 0 10 0.09 0.07
1 0 10 0.17 0.08
-1 0 -10 0.01 0.04
-1 0 -10 0.03 0.09
1 0 10 0.11 0.08
-1 0 -10 0.05 0.08
2 0 10 6.3 0.57
-2 0 -10 7.34 0.61
2 0 10 6.65 0.64
-2 0 -10 6.56 0.53
2 0 10 6.46 0.59
2 0 10 6.46 0.64
-2 0 -10 7.19 0.58
2 0 10 5.64 0.6
-2 0 -10 6.22 0.56
2 0 10 6.31 0.61
2 0 10 6.19 0.6
3 0 10 0.21 0.11
-3 0 -10 0.02 0.13
-3 0 -10 -0.05 0.07
-3 0 -10 -0.05 0.1
3 0 10 0.09 0.11
3 0 10 0.05 0.1
3 0 10 0.19 0.12
3 0 10 0.4 0.14
-3 0 -10 0.08 0.12
3 0 10 -0.03 0.05
3 0 10 0.07 0.09
-3 0 -10 0.13 0.11
-3 0 -10 0.15 0.12
-3 0 -10 0.12 0.13
-4 0 -10 167.91 11.24
-4 0 -10 168.06 10.29
4 0 10 165.89 11.67
4 0 10 159.27 12.14
-4 0 -10 139.67 9.02
-4 0 -10 176.3 11.58
4 0 10 141.96 12.91
-4 0 -10 152.46 11.31
4 0 10 166.08 12.38
-4 0 -10 139.84 9.64
-5 0 -10 0.11 0.17
5 0 10 0.2 0.15
-5 0 -10 -0.01 0.17
5 0 10 0.14 0.18
5 0 10 0.19 0.18
-5 0 -10 0.14 0.16
-5 0 -10 0.16 0.15
5 0 10 0.26 0.2
-5 0 -10 0.26 0.18
5 0 10 0.11 0.11
5 0 10 0.06 0.12
-5 0 -10 0.16 0.18
-5 0 -10 0.07 0.17
-5 0 -10 0.01 0.14
-5 0 -10 0.06 0.13
-6 0 -10 156.9 8.88
6 0 10 156.79 9.42
6 0 10 144.34 9.32
-6 0 -10 147.05 8.69
-6 0 -10 121.54 10.15
-6 0 -10 140.67 8.33
6 0 10 160.67 9.01
-6 0 -10 130.09 8.91
6 0 10 125.88 9.57
-6 0 -10 152.02 8.73
6 0 10 150.08 9.54
6 0 10 153.96 9.2
-7 0 -10 0.23 0.15
7 0 10 0.07 0.11
7 0 10 0.25 0.12
-7 0 -10 0.12 0.13
-7 0 -10 0.29 0.16
7 0 10 -0.03 0.12
7 0 10 0.21 0.13
-7 0 -10 0.1 0.15
-7 0 -10 0.36 0.18
7 0 10 0.16 0.13
-7 0 -10 0.35 0.15
7 0 10 0.19 0.14
-8 0 -10 13.85 0.92
8 0 10 13.38 0.92
-8 0 -10 13.86 0.92
8 0 10 13.57 0.97
8 0 10 13.49 0.97
-8 0 -10 13.9 0.9
8 -1 -10 6.73 0.51
8 -1 -10 5.73 0.47
8 -1 -10 5.75 0.48
8 -1 -10 6.87 0.48
8 -1 -10 6.83 0.48
-8 1 10 5.62 0.52
8 1 -10 6.56 0.49
8 1 -10 5.86 0.47
-8 1 10 7.14 0.51
8 1 -10 7.34 0.52
8 1 -10 6.81 0.53
8 1 -10 5.28 0.5
-8 1 10 5.67 0.49
-8 1 10 6.14 0.5
-8 1 10 6.62 0.49
7 -1 -10 9.95 0.73
7 -1 -10 10.2 0.74
7 -1 -10 10.07 0.77
7 -1 -10 9.96 0.75
7 -1 -10 8.33 0.64
7 -1 -10 9.79 0.74
-7 1 10 8.29 0.67
-7 1 10 10.43 0.78
7 1 -10 10.38 0.79
7 1 -10 10.18 0.8
7 1 -10 11.14 0.81
-7 1 10 10.81 0.78
-7 1 10 9.16 0.81
7 1 -10 9.07 0.75
-7 1 10 10.27 0.77
7 1 -10 9.89 0.75
-7 1 10 10.56 0.79
7 1 -10 10.82 0.76
6 -1 -10 41.9 2.95
6 -1 -10 48.91 2.83
6 -1 -10 42.55 2.59
6 -1 -10 47.82 2.91
6 -1 -10 45.51 2.98
6 -1 -10 49.11 2.86
6 1 -10 45.9 2.88
6 1 -10 46.51 3.02
-6 1 10 42.98 3.17
6 1 -10 46.47 2.94
6 1 -10 45.08 3.09
6 1 -10 45.05 3
6 1 -10 40.43 2.61
6 1 -10 45.71 2.84
6 1 -10 39.23 3.02
-5 -1 10 0.02 0.12
5 -1 -10 0.09 0.1
-5 -1 10 0.01 0.16
5 -1 -10 0.02 0.13
5 -1 -10 0.03 0.15
5 -1 -10 0.02 0.13
5 -1 -10 0.02 0.13
-5 -1 10 0.07 0.13
5 -1 -10 0.06 0.1
5 -1 -10 0.06 0.11
-5 -1 10 0.08 0.11
-5 -1 10 0 0.14
5 -1 -10 -0.04 0.14
5 -1 -10 -0.02 0.11
5 -1 -10 0 0.12
-5 -1 10 1.04 0.3
5 -1 -10 0.03 0.17
5 -1 -10 -0.09 0.09
5 1 -10 0.02 0.12
5 1 -10 0.07 0.16
5 1 -10 0.1 0.16
5 1 -10 0.04 0.16
-5 1 10 0.12 0.17
-5 1 10 0.09 0.17
5 1 -10 0.02 0.13
5 1 -10 0.26 0.17
5 1 -10 0.11 0.14
-5 1 10 0.15 0.15
-5 1 10 -0.05 0.15
5 1 -10 0.01 0.12
5 1 -10 0.01 0.12
5 1 -10 0.03 0.15
4 -1 -10 169.95 12.95
-4 -1 10 169.9 11.49
4 -1 -10 152.35 11.67
-4 -1 10 165.99 11.56
-4 -1 10 162.5 11.55
4 -1 -10 162.45 12.31
-4 -1 10 145.65 11.66
4 -1 -10 138.7 9.88
4 -1 -10 174.06 13.18
4 -1 -10 133.34 9.13
-4 -1 10 164.15 11.48
4 1 -10 135.96 10.13
-4 1 10 160.26 11.55
4 1 -10 147.22 8.89
4 1 -10 156.87 9.93
-4 1 10 162.13 11.73
4 1 -10 160.51 9.47
4 1 -10 151.06 9.33
4 1 -10 137.03 9.17
4 1 -10 167.13 9.69
4 1 -10 156.7 8.71
4 1 -10 151.1 9.9
-4 1 10 162.65 11.52
-4 1 10 145.73 11
4 1 -10 135.67 8.82
4 1 -10 162.89 10.25
-3 -1 10 2.44 0.3
3 -1 -10 2.53 0.31
-3 -1 10 2.68 0.31
-3 -1 10 2.73 0.33
3 -1 -10 2.67 0.37
-3 -1 10 2.85 0.33
-3 -1 10 2.6 0.35
3 -1 -10 2.95 0.34
-3 -1 10 2.66 0.33
3 -1 -10 2.9 0.38
3 1 -10 2.19 0.3
-3 1 10 3.16 0.37
3 1 -10 2.45 0.3
3 1 -10 2.34 0.32
-3 1 10 2.4 0.32
3 1 -10 2.68 0.3
-3 1 10 2.72 0.34
3 1 -10 2.6 0.32
3 1 -10 2.79 0.3
3 1 -10 2.51 0.32
3 1 -10 2.5 0.29
3 1 -10 2.56 0.28
3 1 -10 2.57 0.3
3 1 -10 2.36 0.31
3 1 -10 2.41 0.28
3 1 -10 2.58 0.3
-3 1 10 2.64 0.31
3 1 -10 2.55 0.28
-3 1 10 2.81 0.35
-3 1 10 2.56 0.35
2 -1 -10 65.62 4.5
-2 -1 10 61.95 4.39
2 -1 -10 64.38 5.06
-2 -1 10 62.05 4.43
2 -1 -10 64.96 4.96
-2 -1 10 62.28 4.68
2 -1 -10 58.29 4.11
-2 -1 10 66.19 4.43
-2 -1 10 59.75 4.37
2 -1 -10 62 4.4
-2 -1 10 49.37 4.42
2 1 -10 51.76 3.41
-2 1 10 53.93 4.42
-2 1 10 59.94 4.45
2 1 -10 51.14 3.34
2 1 -10 48.6 3.61
-2 1 10 63.32 4.43
-2 1 10 65.82 4.5
-2 1 10 62.71 4.43
2 1 -10 50.59 3.7
2 1 -10 47.69 3.4
-1 -1 10 24.06 1.67
-1 -1 10 24.08 1.8
-1 -1 10 20.07 1.77
1 -1 -10 25.15 1.84
-1 -1 10 23.1 1.94
-1 -1 10 23.63 1.83
1 -1 -10 24.62 2.09
1 -1 -10 22.12 1.71
-1 -1 10 23.11 1.82
1 -1 -10 24.55 2.04
1 -1 -10 21.73 1.78
1 -1 -10 20.28 1.57
1 -1 -10 24.03 1.87
-1 -1 10 26.16 1.85
-1 -1 10 24.84 1.84
-1 1 10 25.32 1.85
-1 1 10 24.27 1.85
-1 1 10 22.24 1.84
-1 1 10 23.09 1.85
0 -1 -10 93.39 6.69
0 -1 10 97.18 6.58
0 -1 10 89.74 5.96
0 -1 10 90.43 7.32
0 -1 10 91.57 6.97
0 -1 10 77.1 6.51
0 -1 10 86.06 6.57
0 -1 -10 93.6 7.51
0 -1 -10 82.84 5.77
0 -1 10 95.07 6.86
0 -1 -10 89.41 6.51
0 -1 -10 98.2 6.59
0 -1 -10 78.93 6.28
0 -1 -10 89.45 6.17
0 -1 10 90.12 6.59
0 -1 10 90.97 6.6
0 1 10 83.25 6.61
0 1 10 85.46 6.61
0 1 10 76.18 6.96
0 1 10 94.16 6.58
-1 -1 -10 1.06 0.19
-1 -1 -10 0.7 0.15
-1 -1 -10 1.62 0.26
1 -1 10 1.11 0.2
-1 -1 -10 0.82 0.17
1 -1 10 1.03 0.21
1 -1 10 0.96 0.18
-1 -1 -10 1.04 0.21
1 -1 10 0.92 0.21
-1 -1 -10 1.1 0.21
1 -1 10 1.05 0.15
1 -1 10 1.61 0.24
-1 -1 -10 1.1 0.18
1 -1 10 1.27 0.23
1 1 10 0.94 0.18
1 1 10 1.39 0.25
1 1 10 1.04 0.21
1 1 10 1.69 0.27
1 1 10 1.22 0.21
-1 1 -10 0.8 0.17
-2 -1 -10 409.19 24.37
-2 -1 -10 401.85 26.6
-2 -1 -10 425.21 25.96
-2 -1 -10 396.88 26.85
2 -1 10 412.65 28.81
2 -1 10 397.31 30.73
2 -1 10 386.84 27.78
2 -1 10 394.08 29.69
2 -1 10 407.41 31.17
-2 -1 -10 388.67 27.66
2 -1 10 432.95 27.66
-2 -1 -10 352.61 26.5
-2 1 -10 367.64 24.37
-2 1 -10 348.75 20.96
2 1 10 440.57 27.85
-2 1 -10 355.88 21.48
-2 1 -10 335.48 22.39
2 1 10 387.98 29.37
-2 1 -10 321.74 22.91
2 1 10 427.34 27.82
2 1 10 370.61 27.64
2 1 10 319.05 23.62
-2 1 -10 340.57 22.24
-2 1 -10 342.34 26.57
-2 1 -10 340.4 22.29
-2 1 -10 343.09 22.71
-2 1 -10 337.39 21.45
-3 -1 -10 0.13 0.13
3 -1 10 0.07 0.13
-3 -1 -10 0.21 0.15
-3 -1 -10 0.17 0.1
3 -1 10 0.26 0.15
-3 -1 -10 0.12 0.1
-3 -1 -10 0.17 0.13
-3 -1 -10 0.17 0.11
3 -1 10 0.1 0.15
3 -1 10 0.1 0.13
3 -1 10 0.14 0.13
3 -1 10 0.09 0.11
-3 -1 -10 0.13 0.14
-3 -1 -10 0.02 0.13
3 -1 10 -0.06 0.09
-3 1 -10 0 0.13
-3 1 -10 0.09 0.14
-3 1 -10 0.15 0.15
3 1 10 0.21 0.11
3 1 10 0.08 0.13
3 1 10 0.09 0.11
-3 1 -10 0.13 0.14
3 1 10 0.08 0.14
3 1 10 -0.04 0.1
-3 1 -10 0.68 0.18
-3 1 -10 0.04 0.1
-3 1 -10 0.1 0.16
-3 1 -10 -0.07 0.13
3 1 10 0.11 0.16
-3 1 -10 0.17 0.15
3 1 10 0 0.12
3 1 10 0.11 0.12
-3 1 -10 0.17 0.15
-3 1 -10 0.09 0.18
3 1 10 -0.04 0.11
3 1 10 0.01 0.14
3 1 10 0.07 0.13
3 1 10 0.18 0.14
-3 1 -10 0.13 0.11
4 -1 10 60.04 5.85
-4 -1 -10 74.9 4.98
4 -1 10 68.86 5.35
4 -1 10 65.51 5.51
4 -1 10 61.21 5.76
-4 -1 -10 64.45 4.78
-4 -1 -10 69.74 5
-4 -1 -10 63.28 4.91
4 -1 10 69.53 5.13
-4 -1 -10 68.62 5.08
4 -1 10 72.43 5.72
-4 -1 -10 72.01 4.54
4 1 10 71.6 4.5
4 1 10 67.24 5.46
-4 1 -10 66.19 4.27
-4 1 -10 72.43 4.02
-4 1 -10 63.79 4.86
4 1 10 61.35 5.32
4 1 10 69.21 4.33
4 1 10 75.68 4.44
-4 1 -10 68.16 4.16
4 1 10 66.2 4.51
4 1 10 69.08 4.55
-4 1 -10 71.05 3.91
-4 1 -10 70.92 4.25
4 1 10 63.36 4.95
-4 1 -10 70.77 4.57
4 1 10 66.92 5.14
-4 1 -10 67.29 4.97
-4 1 -10 71.1 4.19
4 1 10 70.93 4.36
5 -1 10 1.26 0.31
5 -1 10 0.67 0.26
5 -1 10 1.13 0.33
-5 -1 -10 1.44 0.33
-5 -1 -10 1.57 0.33
-5 -1 -10 1 0.25
-5 -1 -10 0.8 0.24
5 -1 10 0.72 0.28
5 -1 10 1.09 0.32
-5 -1 -10 1.04 0.3
5 1 10 1.42 0.28
5 1 10 1.06 0.22
-5 1 -10 1.67 0.34
5 1 10 1.26 0.27
-5 1 -10 1.5 0.26
-5 1 -10 1.71 0.31
-5 1 -10 1.6 0.33
5 1 10 1.83 0.34
5 1 10 1.37 0.28
-5 1 -10 1.51 0.26
5 1 10 1.26 0.35
-5 1 -10 1.27 0.33
5 1 10 1.67 0.34
5 1 10 1.59 0.31
5 1 10 0.75 0.31
-5 1 -10 1.35 0.27
-5 1 -10 1.28 0.32
6 1 10 24.79 1.81
-6 1 -10 26.89 1.73
-6 1 -10 25.28 1.67
6 1 10 24.42 1.8
6 1 10 25.55 1.72
-6 1 -10 23.38 1.57
6 1 10 26.96 1.79
6 1 10 26.65 1.74
-6 1 -10 27.6 1.73
6 1 10 27.33 1.78
-6 1 -10 20.68 1.92
-6 1 -10 26.29 1.69
-7 -1 -10 0.17 0.13
7 -1 10 0.09 0.11
-7 -1 -10 0.4 0.18
7 -1 10 0.16 0.13
7 -1 10 0.36 0.14
-7 -1 -10 0.3 0.17
7 -1 10 0.15 0.13
-7 -1 -10 0.29 0.16
7 -1 10 0.2 0.15
-7 -1 -10 0.37 0.14
-7 1 -10 0.32 0.18
7 1 10 0.25 0.14
7 1 10 0.26 0.16
7 1 10 0.43 0.16
-7 1 -10 0.32 0.15
7 1 10 0.25 0.13
-7 1 -10 0.19 0.15
-7 1 -10 0.17 0.15
-7 1 -10 0.07 0.16
7 1 10 0.45 0.18
-8 -1 -10 56.67 3.54
-8 -1 -10 60.11 3.61
8 -1 10 58.86 3.83
8 -1 10 57.27 3.89
8 1 10 59.84 3.67
8 1 10 59.13 3.84
-8 1 -10 60.49 3.66
-8 1 -10 59.35 3.55
7 -2 -10 0.11 0.11
7 -2 -10 -0.02 0.1
7 -2 -10 0.08 0.11
7 -2 -10 0.06 0.1
7 -2 -10 0.02 0.09
-7 2 10 0.12 0.13
-7 2 10 0.03 0.13
7 2 -10 -0.05 0.14
-7 2 10 0.15 0.14
7 2 -10 0.07 0.14
7 2 -10 0.04 0.12
7 2 -10 -0.02 0.14
-7 2 10 0.06 0.13
7 2 -10 0.14 0.13
7 2 -10 -0.05 0.14
7 2 -10 0.05 0.13
-7 2 10 -0.01 0.12
6 -2 -10 62.07 3.73
6 -2 -10 58.98 3.66
6 -2 -10 62.05 3.8
6 -2 -10 56 3.87
6 -2 -10 55.03 3.4
6 2 -10 55.58 4.03
-6 2 10 66.09 3.77
-6 2 10 63.31 3.89
-6 2 10 66.3 3.81
6 2 -10 53.36 3.42
6 2 -10 63.88 3.74
6 2 -10 59.22 3.77
-6 2 10 59.01 3.51
6 2 -10 62.1 3.96
-6 2 10 64.44 3.92
6 2 -10 51.65 3.9
6 2 -10 58.67 3.84
6 2 -10 55.93 3.99
6 2 -10 60.06 3.93
5 -2 -10 0.15 0.11
5 -2 -10 0.59 0.16
5 2 -10 0.29 0.17
5 2 -10 0.52 0.21
5 2 -10 0.82 0.28
5 2 -10 0.5 0.21
5 2 -10 0.48 0.21
5 2 -10 0.62 0.2
5 2 -10 0.91 0.27
-5 2 10 0.8 0.28
-5 2 10 0.75 0.27
-5 2 10 0.51 0.23
-5 2 10 -0.04 0.15
5 2 -10 0.65 0.2
-5 2 10 0.78 0.23
5 2 -10 0.4 0.2
5 2 -10 0.66 0.26
5 2 -10 0.23 0.2
-5 2 10 0.73 0.27
-5 2 10 0.69 0.24
5 2 -10 0.52 0.24
4 -2 -10 17.05 1.55
4 -2 -10 18.14 1.8
4 -2 -10 18.54 1.6
-4 -2 10 17.86 1.59
-4 -2 10 17.89 1.58
-4 -2 10 18.65 1.69
-4 -2 10 16.77 1.54
-4 -2 10 18.59 1.57
4 -2 -10 18.66 1.76
-4 2 10 19.98 1.39
4 2 -10 20.08 1.32
4 2 -10 19.88 1.33
-4 2 10 18.14 1.36
4 2 -10 18.84 1.3
-4 2 10 17.7 1.35
4 2 -10 20.06 1.35
4 2 -10 19.63 1.28
-4 2 10 21 1.46
-4 2 10 17.87 1.33
4 2 -10 21.27 1.3
4 2 -10 20.47 1.42
4 2 -10 19.25 1.29
4 2 -10 20.72 1.39
4 2 -10 18.96 1.36
4 2 -10 19.5 1.25
-4 2 10 17.85 1.67
4 2 -10 18.79 1.28
4 2 -10 18.08 1.23
4 2 -10 20.38 1.41
-4 2 10 15.59 1.61
-4 2 10 17.83 1.67
-4 2 10 19.8 1.3
-4 2 10 19.94 1.38
4 2 -10 20.62 1.4
4 2 -10 19.4 1.42
4 2 -10 18.19 1.22
4 2 -10 18.69 1.41
3 -2 -10 46.52 3.47
3 -2 -10 43.17 3.8
3 -2 -10 46.62 3.9
-3 -2 10 45.13 3.41
-3 -2 10 39.95 3.35
3 -2 -10 43.64 3.39
-3 -2 10 46.07 3.62
-3 -2 10 45.91 3.38
-3 -2 10 45.66 3.43
3 -2 -10 38.81 3.15
3 2 -10 45.42 2.82
-3 2 10 41.89 2.89
-3 2 10 42.64 2.83
3 2 -10 45.33 2.64
-3 2 10 41.17 2.83
3 2 -10 40.92 2.77
3 2 -10 44.7 2.96
-3 2 10 42.53 2.83
3 2 -10 44.7 2.67
-3 2 10 43.4 2.97
-3 2 10 37.63 3.44
-3 2 10 41.58 2.68
3 2 -10 47.29 2.89
-3 2 10 44.28 3.49
3 2 -10 46.88 2.82
-3 2 10 44.23 2.95
3 2 -10 46.54 2.93
3 2 -10 43.11 2.78
3 2 -10 45.28 3.02
3 2 -10 45.33 2.98
3 2 -10 43.23 2.67
3 2 -10 49.16 3.06
3 2 -10 38.71 2.56
3 2 -10 47.76 2.98
3 2 -10 42.54 2.7
3 2 -10 40.87 2.63
3 2 -10 45.74 2.94
3 2 -10 44.77 2.85
3 2 -10 47.24 2.86
3 2 -10 44.14 2.75
3 2 -10 48.28 2.97
3 2 -10 43.29 2.65
3 2 -10 46.09 2.67
3 2 -10 42.94 2.74
-2 -2 10 103.95 7.41
-2 -2 10 102.17 7.86
2 -2 -10 103.34 7.41
2 -2 -10 96.25 6.92
-2 -2 10 104.75 7.44
-2 -2 10 96.53 7.35
2 -2 -10 86.02 6.47
2 -2 -10 102.83 8.46
2 -2 -10 92.47 7.29
2 -2 -10 96.23 8.28
2 -2 -10 104.73 7.54
-2 -2 10 103.26 7.41
2 2 -10 94.05 5.95
-2 2 10 92.82 6.32
2 2 -10 96.54 6.07
2 2 -10 100.85 6.31
2 2 -10 103.25 6.53
2 2 -10 105.82 6.23
-2 2 10 86.96 6.27
2 2 -10 104.69 6.3
2 2 -10 98.34 5.75
2 2 -10 96.39 6.79
2 2 -10 101.87 6.41
2 2 -10 100.08 5.65
2 2 -10 106.46 6.62
2 2 -10 112.33 6.57
-2 2 10 91.5 6.03
2 2 -10 99.2 5.76
-2 2 10 87.13 6.09
2 2 -10 99.4 5.78
2 2 -10 97.88 5.97
2 2 -10 99.25 5.78
-2 2 10 86.65 7.14
2 2 -10 105.49 6.13
2 2 -10 109.41 6.41
2 2 -10 102.49 6.04
2 2 -10 98.18 5.74
2 2 -10 95.89 6.12
-2 2 10 90.37 6.35
2 2 -10 100.71 5.99
2 2 -10 99.63 5.98
2 2 -10 110.48 6.17
2 2 -10 104.67 6.42
-2 2 10 94.45 7.44
2 2 -10 108.26 7.03
-2 2 10 89.15 5.73
2 2 -10 100.41 5.78
-2 2 10 85.58 7.21
2 2 -10 96.79 5.61
2 2 -10 106.11 6.46
-2 2 10 96.82 7.45
2 2 -10 102.58 6.26
-1 -2 10 9.08 0.96
-1 -2 10 10.35 0.86
1 -2 -10 10.17 0.86
1 -2 -10 9.69 0.83
-1 -2 10 9.55 0.89
1 -2 -10 9.64 0.95
1 -2 -10 10.66 0.87
-1 -2 10 9.74 0.77
1 -2 -10 9.8 0.8
-1 -2 10 10.21 0.91
1 -2 -10 9.22 0.8
-1 -2 10 9.23 0.81
1 -2 -10 8.75 0.73
-1 -2 10 9.63 0.83
-1 -2 10 9.77 0.86
1 2 -10 9.41 0.76
1 2 -10 10.27 0.78
1 2 -10 9.94 0.71
1 2 -10 9.06 0.72
1 2 -10 9.97 0.71
-1 2 10 8.51 0.82
1 2 -10 10.1 0.69
1 2 -10 9.21 0.72
1 2 -10 9.42 0.71
-1 2 10 8.13 0.74
-1 2 10 8.09 0.86
-1 2 10 8.13 0.74
-1 2 10 8.86 0.76
1 2 -10 9.49 0.72
1 2 -10 9.62 0.7
1 2 -10 10.51 0.75
1 2 -10 9.52 0.72
1 2 -10 9.28 0.7
1 2 -10 10.19 0.71
1 2 -10 10.26 0.74
1 2 -10 10.35 0.76
1 2 -10 10.44 0.74
1 2 -10 9.39 0.75
1 2 -10 10.4 0.74
-1 2 10 9.13 0.88
1 2 -10 8.54 0.78
1 2 -10 9.86 0.66
1 2 -10 10.59 0.85
1 2 -10 9.55 0.73
1 2 -10 8.73 0.7
1 2 -10 9.37 0.72
1 2 -10 9.62 0.69
1 2 -10 9.97 0.72
-1 2 10 9.09 0.73
1 2 -10 9.53 0.71
1 2 -10 9.32 0.75
-1 2 10 8.73 0.85
1 2 -10 9.96 0.69
1 2 -10 10.38 0.76
-1 2 10 8.53 0.85
1 2 -10 9.03 0.7
1 2 -10 10.12 0.7
1 2 -10 10.01 0.73
1 2 -10 10.67 0.75
-1 2 10 9.1 0.68
0 -2 -10 165.86 11
0 -2 -10 176.53 12.39
0 -2 -10 172.58 12.72
0 -2 -10 183.45 11.75
0 -2 10 176.87 13.03
0 -2 10 175.27 13.25
0 -2 10 179.79 12.5
0 -2 -10 163.92 12.01
0 -2 10 175.67 12.52
0 -2 10 176.88 13.92
0 -2 10 170.15 13.44
0 -2 -10 142.75 14.26
0 -2 10 178.51 11.35
0 -2 -10 179.57 12.53
0 2 -10 165.68 11.51
0 2 -10 178.91 10.3
0 2 -10 171.01 9.73
0 2 -10 168 9.62
0 2 -10 175.54 10.12
0 2 -10 168.61 10.31
0 2 10 166.63 10.71
0 2 10 148.84 11.07
0 2 10 162.01 10.26
0 2 -10 171.56 9.76
0 2 -10 183.64 11.89
0 2 -10 160.56 10.61
0 2 -10 166.35 10.51
0 2 -10 174.9 9.48
0 2 -10 173.41 10.38
0 2 10 158.76 10.61
0 2 -10 160.36 10.09
0 2 10 149.17 12.57
0 2 -10 167.93 10.02
0 2 -10 168.15 9.73
0 2 -10 168.76 10.16
0 2 -10 171.75 10.17
0 2 10 157.99 12.12
0 2 -10 177.5 9.68
0 2 -10 164.92 10.17
0 2 -10 187.03 10.82
0 2 -10 178.53 11.18
0 2 -10 172.49 9.77
0 2 10 160.66 12.11
0 2 -10 171.32 9.52
0 2 10 163.92 9.64
0 2 10 155.44 12.27
0 2 -10 167.16 10.29
0 2 -10 185.83 10.84
0 2 -10 159.63 10.67
0 2 10 161.38 12.59
0 2 -10 168.46 10.23
0 2 -10 171.74 9.69
0 2 -10 174.67 10.68
-1 -2 -10 3.71 0.45
1 -2 10 4.49 0.56
-1 -2 -10 4.5 0.47
1 -2 10 4.44 0.48
1 -2 10 4.87 0.56
-1 -2 -10 4.91 0.5
-1 -2 -10 5.03 0.47
-1 -2 -10 4.66 0.48
1 -2 10 4.72 0.51
-1 -2 -10 5.27 0.5
-1 -2 -10 4.98 0.45
1 -2 10 4.47 0.58
1 2 10 4.16 0.43
-1 2 -10 4.98 0.42
-1 2 -10 4.84 0.45
-1 2 -10 4.7 0.45
-1 2 -10 4.77 0.41
-1 2 -10 4.96 0.45
1 2 10 4.47 0.41
1 2 10 4.78 0.52
1 2 10 4.22 0.44
1 2 10 4.73 0.44
-1 2 -10 4.16 0.39
1 2 10 4.39 0.47
1 2 10 4.87 0.44
-1 2 -10 4.82 0.42
-1 2 -10 4.16 0.41
-1 2 -10 4.72 0.44
-1 2 -10 4.91 0.46
-1 2 -10 5.28 0.46
-1 2 -10 4.75 0.5
-1 2 -10 4.73 0.44
-1 2 -10 5.57 0.52
-1 2 -10 4.34 0.41
1 2 10 4.84 0.52
-1 2 -10 4.78 0.4
1 2 10 5.06 0.52
-1 2 -10 4.1 0.39
-1 2 -10 3.9 0.36
1 2 10 4.49 0.51
-1 2 -10 4.67 0.42
-1 2 -10 4.57 0.44
1 2 10 4.66 0.51
-1 2 -10 5.04 0.47
-1 2 -10 4.42 0.45
-1 2 -10 5.09 0.44
-1 2 -10 4.92 0.4
2 -2 10 1.17 0.28
-2 -2 -10 0.27 0.16
-2 -2 -10 0.44 0.19
2 -2 10 0.28 0.2
2 -2 10 1.41 0.31
2 -2 10 0.26 0.21
-2 -2 -10 0.45 0.2
2 -2 10 0.91 0.27
2 -2 10 0.33 0.17
-2 -2 -10 0.84 0.21
-2 -2 -10 0.91 0.23
2 2 10 1.84 0.32
-2 2 -10 0.87 0.25
-2 2 -10 0.03 0.18
2 2 10 0.31 0.17
-2 2 -10 0.85 0.24
2 2 10 0.41 0.17
-2 2 -10 0.3 0.17
2 2 10 0.21 0.16
-2 2 -10 0.32 0.19
-2 2 -10 0.53 0.23
2 2 10 1.46 0.27
-2 2 -10 0.78 0.23
-2 2 -10 0.28 0.18
2 2 10 0.21 0.16
-2 2 -10 0.56 0.2
-2 2 -10 0.23 0.2
-2 2 -10 0.25 0.19
-2 2 -10 1.5 0.26
2 2 10 0.11 0.15
2 2 10 0.36 0.16
2 2 10 0.33 0.19
3 -2 10 32.67 2.73
-3 -2 -10 33.08 2.44
3 -2 10 30.78 2.79
-3 -2 -10 32.74 2.24
-3 -2 -10 31.81 2.45
-3 -2 -10 30.1 2.4
3 -2 10 30.61 2.6
3 -2 10 31.21 2.85
3 -2 10 32.32 2.92
3 -2 10 28.66 2.57
-3 -2 -10 28.98 2.32
-3 -2 -10 31.6 2.5
-3 -2 -10 27.48 2.54
-3 2 -10 32.65 1.98
-3 2 -10 31 2.41
3 2 10 33.75 2.28
3 2 10 33.36 2.26
-3 2 -10 33.17 2.13
-3 2 -10 32.25 2.15
3 2 10 30.55 2.2
-3 2 -10 34.91 2.15
-3 2 -10 32.86 1.96
3 2 10 28.32 2.12
-3 2 -10 34.37 2.09
-3 2 -10 34.52 2.13
3 2 10 32.83 2.42
3 2 10 35.79 2.48
3 2 10 33.52 2.19
-3 2 -10 34.03 2.04
3 2 10 33.69 2.49
-3 2 -10 32.18 2.33
4 -2 10 94.39 8
4 -2 10 86.71 7.72
-4 -2 -10 87.23 7.13
4 -2 10 86.64 8.53
4 -2 10 90.86 8.26
-4 -2 -10 88.49 7.34
4 -2 10 96.15 8.4
-4 -2 -10 96.28 7.17
-4 -2 -10 98.71 6.57
-4 -2 -10 90.74 7.23
4 2 10 107.83 6.45
4 2 10 107.09 7.22
-4 2 -10 96.8 6.86
-4 2 -10 104.58 6.19
4 2 10 102.23 7.28
-4 2 -10 104.2 7.11
-4 2 -10 106.55 5.83
4 2 10 112.87 6.36
4 2 10 111.16 6.56
-4 2 -10 100.29 5.65
-4 2 -10 100.79 6.21
-4 2 -10 106.02 6.07
-4 2 -10 108.34 6.12
4 2 10 96.95 6.27
4 2 10 107.58 6.63
5 2 10 3.16 0.45
-5 2 -10 3.1 0.46
-5 2 -10 3.07 0.47
-5 2 -10 2.55 0.44
-5 2 -10 2.95 0.42
5 2 10 2.71 0.4
5 2 10 2.38 0.41
5 2 10 2.43 0.38
5 2 10 3.38 0.48
5 2 10 2.88 0.44
-5 2 -10 3.16 0.47
5 2 10 2.6 0.4
-5 2 -10 2.29 0.34
-5 2 -10 1.57 0.34
6 2 10 45.87 2.81
6 2 10 37.52 2.82
-6 2 -10 39.88 2.61
-6 2 -10 43.56 2.65
6 2 10 45.43 2.75
-6 2 -10 44.29 2.72
-6 2 -10 42.47 2.68
6 2 10 41.17 2.72
6 2 10 43.73 2.83
6 2 10 41.7 2.84
-6 2 -10 40.62 3.09
-6 2 -10 38.48 2.96
7 -2 10 3.54 0.33
7 -2 10 3.3 0.31
7 -2 10 3.75 0.34
7 -2 10 3.42 0.31
-7 -2 -10 3.53 0.32
7 -2 10 3.97 0.35
-7 2 -10 4.37 0.35
-7 2 -10 3.56 0.34
-7 2 -10 3.64 0.39
-7 2 -10 3.38 0.36
7 2 10 3.91 0.35
7 2 10 4.18 0.35
7 2 10 3.88 0.35
-7 2 -10 4.21 0.36
7 2 10 3.55 0.35
6 -3 -10 19.54 1.25
6 -3 -10 20.52 1.31
6 -3 -10 19.68 1.17
6 -3 -10 20.87 1.29
6 3 -10 18.15 1.31
-6 3 10 21.17 1.37
6 3 -10 19.07 1.38
6 3 -10 20.3 1.37
6 3 -10 19.6 1.4
-6 3 10 22.7 1.32
6 3 -10 19.89 1.38
-6 3 10 19.49 1.22
-6 3 10 19.15 1.3
6 3 -10 19.52 1.29
6 3 -10 19.88 1.31
6 3 -10 18.19 1.34
5 3 -10 0.41 0.19
5 3 -10 0.24 0.17
5 3 -10 0.22 0.19
5 3 -10 0.37 0.18
-5 3 10 0.12 0.19
5 3 -10 0.38 0.22
5 3 -10 0.29 0.2
5 3 -10 0.19 0.16
-5 3 10 0.17 0.17
5 3 -10 0.05 0.13
-5 3 10 0.48 0.25
5 3 -10 0.4 0.21
5 3 -10 0.27 0.19
5 3 -10 0.12 0.21
-5 3 10 0.34 0.2
-5 3 10 0.32 0.18
5 3 -10 0.38 0.21
4 3 -10 90.77 5.88
-4 3 10 93.05 5.4
4 3 -10 89.64 5.34
4 3 -10 80.93 5.34
-4 3 10 95.11 5.71
4 3 -10 95.31 6.02
4 3 -10 88.76 5.29
4 3 -10 93.5 6.01
4 3 -10 90.97 6.11
-4 3 10 96 5.98
-4 3 10 87.7 5.7
4 3 -10 92.16 6.17
4 3 -10 94.48 5.74
4 3 -10 86.3 5.39
4 3 -10 94.17 5.96
4 3 -10 92.43 5.86
4 3 -10 95.06 5.99
-4 3 10 85.58 5.89
-4 3 10 98.53 5.7
4 3 -10 96.25 5.68
4 3 -10 94.51 5.76
4 3 -10 88.51 5.55
3 3 -10 1.35 0.34
-3 3 10 0.6 0.25
3 3 -10 0.79 0.28
3 3 -10 0.55 0.28
3 3 -10 0.64 0.28
3 3 -10 0.68 0.28
3 3 -10 0.47 0.24
-3 3 10 0.76 0.3
3 3 -10 0.32 0.24
3 3 -10 0.59 0.29
3 3 -10 0.51 0.21
3 3 -10 0.58 0.27
3 3 -10 0.58 0.23
3 3 -10 0.8 0.25
-3 3 10 0.24 0.24
3 3 -10 0.41 0.18
-3 3 10 0.49 0.21
-3 3 10 0.46 0.23
3 3 -10 0.73 0.23
-3 3 10 0.64 0.25
3 3 -10 0.64 0.23
3 3 -10 1.1 0.27
3 3 -10 0.25 0.25
3 3 -10 0.84 0.32
3 3 -10 0.36 0.19
-3 3 10 0.71 0.31
3 3 -10 0.78 0.24
2 3 -10 12.19 0.89
2 3 -10 12.24 0.94
2 3 -10 12.34 0.91
-2 3 10 11.79 1
2 3 -10 12.56 0.93
2 3 -10 11.83 0.92
-2 3 10 11.51 0.97
2 3 -10 13.08 0.98
2 3 -10 12.99 0.98
2 3 -10 11.49 0.93
2 3 -10 12.11 1
2 3 -10 12.67 1.02
-2 3 10 11.45 0.96
2 3 -10 12.93 0.91
2 3 -10 12.11 0.94
2 3 -10 12.05 0.87
2 3 -10 11.6 0.91
-2 3 10 11.06 1.05
2 3 -10 14.4 1.02
2 3 -10 12.06 0.98
2 3 -10 13.35 0.93
2 3 -10 12.15 0.94
2 3 -10 11.76 0.98
2 3 -10 12.2 1
2 3 -10 12.44 1.07
2 3 -10 11.76 0.94
2 3 -10 11.41 0.92
-2 3 10 10.17 0.9
2 3 -10 11.85 1.02
-2 3 10 12.34 0.93
2 3 -10 12.91 0.96
-2 3 10 11.5 1
2 3 -10 13.97 0.96
2 3 -10 12.21 0.95
1 3 -10 48.21 3.02
1 3 -10 47.18 2.87
1 3 -10 47.67 3.01
1 3 -10 48.02 2.89
-1 3 10 42.21 3.53
-1 3 10 43.77 3.1
1 3 -10 47.58 3.03
-1 3 10 47.2 3.18
1 3 -10 50.61 3.11
1 3 -10 47.2 2.9
1 3 -10 46.91 3.47
1 3 -10 47.69 2.96
-1 3 10 40.97 3.56
-1 3 10 45.76 2.84
1 3 -10 48.76 3.26
1 3 -10 45.65 3.34
1 3 -10 46.73 2.79
1 3 -10 46.6 2.99
1 3 -10 50.47 3.01
1 3 -10 49.61 2.96
1 3 -10 46.83 3.17
1 3 -10 49.17 3.16
1 3 -10 46.91 2.9
1 3 -10 46.69 2.88
1 3 -10 46.22 2.8
-1 3 10 45.09 3.03
1 3 -10 47.42 3.09
1 3 -10 46.32 3.09
-1 3 10 44.22 3.12
1 3 -10 46.43 2.97
1 3 -10 50.52 2.81
1 3 -10 48.65 2.88
1 3 -10 46.75 3.1
1 3 -10 46.65 2.98
1 3 -10 45.73 2.97
1 3 -10 47.89 3.02
0 -3 -10 4.81 0.68
0 -3 -10 5.71 0.64
0 -3 -10 5.27 0.67
0 -3 -10 5.61 0.73
0 -3 -10 7.71 0.73
0 -3 -10 5.49 0.64
0 3 -10 6.52 0.55
0 3 -10 6.57 0.58
0 3 -10 7.15 0.63
0 3 -10 7.08 0.7
0 3 -10 5.43 0.62
0 3 10 5.7 0.66
0 3 -10 6.25 0.58
0 3 -10 6.84 0.6
0 3 -10 6.65 0.6
0 3 10 6.2 0.69
0 3 -10 6.13 0.54
0 3 -10 6.57 0.6
0 3 -10 6.15 0.56
0 3 -10 6.18 0.61
0 3 -10 6.62 0.61
0 3 10 7.5 0.63
0 3 -10 6.3 0.59
0 3 -10 5.96 0.5
0 3 10 5.29 0.68
0 3 10 5.96 0.53
0 3 -10 6.23 0.59
0 3 -10 5.99 0.53
0 3 -10 8.34 0.67
0 3 -10 6.32 0.54
0 3 10 4.89 0.57
0 3 10 7.04 0.59
0 3 -10 6.32 0.56
0 3 -10 6.48 0.59
0 3 10 6.74 0.62
0 3 -10 6.44 0.59
0 3 -10 5.91 0.58
-1 3 -10 5.94 0.56
-1 3 -10 5.48 0.53
1 3 10 6.04 0.63
-1 3 -10 6.19 0.51
-1 3 -10 6.79 0.61
-1 3 -10 7.05 0.59
-1 3 -10 6.61 0.55
-1 3 -10 6.14 0.6
1 3 10 6.25 0.71
-1 3 -10 6.72 0.64
1 3 10 6.04 0.68
1 3 10 6.6 0.56
-1 3 -10 6.16 0.53
-1 3 -10 6.99 0.65
-1 3 -10 6.84 0.57
-1 3 -10 7.32 0.64
-1 3 -10 5.94 0.57
-1 3 -10 6.54 0.65
-1 3 -10 6.57 0.6
-1 3 -10 6.62 0.61
-1 3 -10 6.88 0.7
-1 3 -10 6.17 0.56
-1 3 -10 7.54 0.62
-1 3 -10 6.59 0.61
1 3 10 7.3 0.61
1 3 10 6.3 0.7
1 3 10 6.44 0.6
1 3 10 5.67 0.57
2 3 10 91.89 6.89
-2 3 -10 105.02 6.31
-2 3 -10 100.93 6.27
-2 3 -10 109.58 7.15
-2 3 -10 108.38 6.46
-2 3 -10 102.15 6.36
-2 3 -10 97.73 6.23
-2 3 -10 111.01 6.46
-2 3 -10 103.19 6.61
2 3 10 107.18 6.56
2 3 10 109.67 7.65
2 3 10 100.51 6.59
2 3 10 108.13 7.56
-2 3 -10 104.49 6.09
2 3 10 106.87 7.51
-2 3 -10 103.27 5.93
-2 3 -10 105.04 6.38
2 3 10 92.03 6.56
-2 3 -10 98.03 7.37
-2 3 -10 104.24 6.04
-2 3 -10 101 6.04
-3 3 -10 3.6 0.5
-3 3 -10 2.79 0.46
3 3 10 1.93 0.37
-3 3 -10 2.81 0.45
3 3 10 3.05 0.47
3 3 10 2.48 0.31
-3 3 -10 3.59 0.5
-3 3 -10 2.51 0.34
-3 3 -10 2.93 0.45
-3 3 -10 2.89 0.49
3 3 10 2.45 0.41
-3 3 -10 2.92 0.36
3 3 10 2.8 0.46
-3 3 -10 2.51 0.42
-3 3 -10 2.56 0.38
3 3 10 2.81 0.41
3 3 10 3.01 0.39
3 3 10 2.93 0.42
4 3 10 16.9 1.42
-4 3 -10 15.3 1.41
4 3 10 18.84 1.35
4 3 10 16.63 1.33
4 3 10 18.64 1.44
-4 3 -10 19.25 1.28
-4 3 -10 16.83 1.22
-4 3 -10 18.83 1.25
4 3 10 18.18 1.29
-4 3 -10 17.63 1.24
4 3 10 16.33 1.29
-4 3 -10 17.08 1.36
-4 3 -10 18.48 1.27
-5 3 -10 17.33 1.15
5 3 10 17.5 1.23
5 3 10 17.31 1.17
5 3 10 16.65 1.2
5 3 10 15.49 1.28
5 3 10 16.63 1.2
5 3 10 15.41 1.14
-5 3 -10 15.85 1.25
-5 3 -10 17.56 1.14
-5 3 -10 16.36 1.32
-5 3 -10 18.05 1.17
-5 3 -10 14.59 1.13
6 3 10 0.93 0.18
-6 3 -10 0.77 0.18
6 3 10 1.14 0.19
-6 3 -10 0.86 0.19
6 3 10 0.88 0.16
-4 4 10 0.33 0.15
-3 4 10 5.42 0.46
-3 4 10 4.86 0.47
-3 4 10 4.7 0.45
-3 4 10 5.11 0.44
-2 4 10 23.67 1.64
-2 4 10 26.55 1.55
-2 4 10 24.12 1.66
-2 4 10 20.49 1.84
-2 4 10 26.46 1.71
-2 4 10 26.11 1.68
-1 4 10 16.38 1.14
-1 4 10 12.89 1.2
-1 4 10 13.91 1.11
-1 4 10 16.63 1.01
-1 4 10 16.07 1.09
-1 4 10 15.24 1.25
-1 4 10 14.83 1.06
0 4 10 50.18 3.06
0 4 10 38.87 3.41
0 4 -10 48.99 2.88
0 4 10 47.34 2.92
0 4 -10 45.4 2.92
0 4 -10 46.57 3.02
0 4 -10 47 2.91
0 4 10 48.07 3.06
0 4 10 44.15 3.46
0 4 -10 50.76 2.96
0 4 -10 38.36 3.34
0 4 -10 49.14 2.88
0 4 -10 49.12 2.95
0 4 10 43.37 3.47
0 4 -10 48.17 3.26
0 4 10 45.12 2.71
-1 4 -10 4.23 0.47
-1 4 -10 4.67 0.51
-1 4 -10 4.67 0.43
-1 4 -10 3.94 0.49
1 4 10 4.42 0.48
1 4 10 4.85 0.46
-1 4 -10 4.61 0.41
-1 4 -10 5.06 0.44
1 4 10 5.68 0.57
-1 4 -10 4.94 0.47
-1 4 -10 4.61 0.46
-1 4 -10 5.15 0.5
-1 4 -10 5.37 0.5
1 4 10 4.97 0.56
1 4 10 4.98 0.46
1 4 10 4.2 0.41
1 4 10 5.46 0.56
-1 4 -10 4.96 0.44
2 4 10 1.62 0.29
2 4 10 1.7 0.34
-2 4 -10 1.52 0.3
2 4 10 1.28 0.24
-2 4 -10 1.34 0.23
-2 4 -10 1.38 0.25
2 4 10 1.29 0.23
-2 4 -10 1.35 0.28
2 4 10 1.56 0.29
-2 4 -10 1.75 0.26
2 4 10 1.52 0.31
-2 4 -10 1.79 0.31
-2 4 -10 1.67 0.25
-2 4 -10 1.01 0.25
-2 4 -10 1.42 0.27
2 4 10 1.9 0.27
3 4 10 0.62 0.21
3 4 10 0.41 0.15
-3 4 -10 0.35 0.2
3 4 10 0.64 0.2
-3 4 -10 0.37 0.15
-3 4 -10 0.47 0.19
-3 4 -10 0.43 0.18
3 4 10 0.5 0.19
-3 4 -10 0.25 0.17
3 4 10 0.33 0.16
-3 4 -10 0.47 0.18
-3 4 -10 0.13 0.2
8 0 -11 0.28 0.12
-8 0 11 0.21 0.14
8 0 -11 0.15 0.13
-8 0 11 0.12 0.11
-8 0 11 0.15 0.13
8 0 -11 0.07 0.11
8 0 -11 0.23 0.13
8 0 -11 0.06 0.11
-8 0 11 0.06 0.14
7 0 -11 2.11 0.29
7 0 -11 0.85 0.22
7 0 -11 1.28 0.24
7 0 -11 0.98 0.2
7 0 -11 1.37 0.26
7 0 -11 1.03 0.18
6 0 -11 0.29 0.16
6 0 -11 0.15 0.11
6 0 -11 0.08 0.14
6 0 -11 0.14 0.16
6 0 -11 0.1 0.12
6 0 -11 0.58 0.19
6 0 -11 0.12 0.12
5 0 -11 72.8 4.33
5 0 -11 81.44 4.63
-5 0 11 73.16 5.64
-5 0 11 66.74 5.62
5 0 -11 77.1 4.56
5 0 -11 77.77 4.85
5 0 -11 77.32 4.25
-5 0 11 76.54 5.63
5 0 -11 73.51 4.82
5 0 -11 66.58 6.39
-5 0 11 63.89 5.91
5 0 -11 75.16 6.33
-5 0 11 79.74 5.64
-5 0 11 74.7 5.72
5 0 -11 81.55 4.72
-4 0 11 -0.03 0.11
-4 0 11 0.17 0.11
4 0 -11 -0.01 0.09
-4 0 11 0.03 0.1
4 0 -11 -0.02 0.11
4 0 -11 0.06 0.12
-4 0 11 -0.04 0.11
4 0 -11 0.06 0.1
4 0 -11 0.06 0.11
4 0 -11 -0.01 0.11
-4 0 11 0.23 0.12
-4 0 11 0.06 0.11
4 0 -11 0.01 0.11
4 0 -11 0.02 0.1
4 0 -11 0.11 0.12
4 0 -11 0.14 0.1
4 0 -11 -0.07 0.09
-4 0 11 0.09 0.11
4 0 -11 -0.05 0.08
3 0 -11 221.66 12.6
3 0 -11 198.23 14.4
3 0 -11 213.8 13.7
-3 0 11 234.3 16.78
-3 0 11 260.49 16.7
3 0 -11 221.12 13.98
3 0 -11 202.93 13.53
3 0 -11 215.02 13.31
3 0 -11 192.41 12.82
-3 0 11 230.74 16.98
-3 0 11 238.75 17.7
-3 0 11 254.91 16.78
-3 0 11 237.45 15.96
3 0 -11 253.19 19.12
3 0 -11 213.95 12.88
3 0 -11 238.77 16.97
-2 0 11 0.11 0.09
-2 0 11 0.38 0.14
2 0 -11 0.03 0.09
2 0 -11 -0.01 0.05
-2 0 11 0.54 0.14
-2 0 11 0.07 0.1
-2 0 11 0.29 0.1
2 0 -11 0.1 0.09
-2 0 11 0.34 0.12
2 0 -11 0.14 0.1
-2 0 11 0.03 0.07
-2 0 11 0.11 0.09
2 0 -11 0.05 0.09
2 0 -11 0.04 0.08
1 0 -11 129.98 9.49
-1 0 11 127.35 9.5
-1 0 11 120.71 9.86
-1 0 11 126.48 9.47
-1 0 11 123.74 8.6
-1 0 11 138.83 9.48
-1 0 11 128.28 10.06
-1 0 11 137.81 9.54
-1 0 11 118.13 9.62
1 0 -11 121.46 8.88
1 0 -11 135.66 9.67
-1 0 11 130.03 9.47
-1 0 11 131.64 9.55
0 0 -11 -0.15 0.04
0 0 -11 -0.12 0.06
0 0 11 -0.02 0.08
0 0 -11 -0.14 0.08
0 0 11 -0.07 0.07
0 0 11 0.04 0.09
0 0 -11 -0.07 0.09
0 0 -11 -0.01 0.09
0 0 11 0.08 0.09
0 0 11 -0.02 0.09
0 0 11 -0.08 0.07
0 0 11 -0.06 0.07
0 0 -11 -0.1 0.08
-1 0 -11 265.7 17.8
1 0 11 276.55 20.19
1 0 11 299.56 20.35
1 0 11 273.37 20.22
1 0 11 276.91 21.47
-1 0 -11 282.61 20.25
-1 0 -11 274.46 20.04
1 0 11 288.93 20.32
1 0 11 236.51 22.44
-1 0 -11 284.55 18.99
1 0 11 273.67 21.04
-2 0 -11 -0.05 0.09
2 0 11 0.09 0.11
-2 0 -11 -0.03 0.06
2 0 11 0.03 0.1
-2 0 -11 -0.05 0.09
2 0 11 0.05 0.08
-2 0 -11 -0.06 0.11
2 0 11 0.1 0.11
-2 0 -11 0.02 0.09
2 0 11 0.07 0.1
2 0 11 0.41 0.14
2 0 11 0.02 0.08
-3 0 -11 170.97 10.79
3 0 11 133.41 12.26
3 0 11 155.65 11.94
-3 0 -11 133.94 9.23
-3 0 -11 137.98 9.2
3 0 11 147.69 11.48
-3 0 -11 171.51 10.13
3 0 11 167.39 12.2
-3 0 -11 174.42 11.41
3 0 11 148.39 12.72
3 0 11 164.08 11.55
-3 0 -11 161.13 11.04
-4 0 -11 0.09 0.12
4 0 11 0.06 0.14
4 0 11 0.14 0.16
-4 0 -11 0.17 0.15
4 0 11 0.53 0.22
-4 0 -11 0.13 0.18
-4 0 -11 0.03 0.13
-4 0 -11 0.19 0.16
-4 0 -11 0.04 0.13
4 0 11 0.08 0.13
4 0 11 0.02 0.11
-4 0 -11 -0.01 0.14
-4 0 -11 0.18 0.17
-5 0 -11 53.8 3.03
-5 0 -11 49.28 2.74
5 0 11 47.39 3.64
5 0 11 40.53 3.99
5 0 11 43.91 3.84
5 0 11 49.21 3.21
-5 0 -11 47.25 3.21
-5 0 -11 55.41 2.85
-5 0 -11 49.28 2.94
-5 0 -11 51.96 2.97
-5 0 -11 45.43 2.99
5 0 11 45.98 3.05
5 0 11 44.89 3.78
-5 0 -11 44.16 3.59
-5 0 -11 46.75 3.5
-5 0 -11 41.04 3.49
-6 0 -11 0.33 0.17
6 0 11 0.29 0.13
6 0 11 0.15 0.12
6 0 11 -0.14 0.11
-6 0 -11 0.31 0.17
-6 0 -11 0.22 0.16
6 0 11 0.28 0.16
-6 0 -11 0.36 0.17
6 0 11 0.44 0.18
6 0 11 0.3 0.16
-6 0 -11 0.12 0.13
-6 0 -11 0.41 0.16
6 0 11 0.12 0.14
-7 0 -11 37.88 2.49
-7 0 -11 36.45 2.3
7 0 11 40.35 2.51
-7 0 -11 40.42 2.43
-7 0 -11 41.19 2.44
-7 0 -11 42.33 2.49
7 0 11 36.25 2.64
7 0 11 35.66 2.57
7 0 11 39.2 2.62
7 0 11 40.84 2.56
8 0 11 0.05 0.09
-8 0 -11 -0.01 0.1
-8 0 -11 0.04 0.1
-8 0 -11 0.22 0.13
8 0 11 0.07 0.1
8 0 11 0.02 0.09
8 -1 -11 0.68 0.15
8 -1 -11 0.53 0.14
8 -1 -11 0.6 0.15
8 -1 -11 0.54 0.13
8 1 -11 0.64 0.17
-8 1 11 0.67 0.17
8 1 -11 0.46 0.13
-8 1 11 0.45 0.13
-8 1 11 0.54 0.16
8 1 -11 0.49 0.15
-8 1 11 0.55 0.15
8 1 -11 0.59 0.15
7 -1 -11 54.12 3.44
7 -1 -11 64.87 3.78
7 -1 -11 61.46 3.96
7 -1 -11 59.75 3.84
7 -1 -11 64.33 3.74
7 -1 -11 55.91 3.93
-7 1 11 54.51 4.2
7 1 -11 61.9 3.75
-7 1 11 67.12 3.78
7 1 -11 62.87 3.98
7 1 -11 61.64 3.8
7 1 -11 65.53 4
7 1 -11 55.56 3.85
-7 1 11 63.13 3.92
-7 1 11 56.68 3.52
7 1 -11 56.99 4.08
-7 1 11 61.9 3.93
-7 1 11 64.41 3.81
6 -1 -11 1.16 0.21
6 -1 -11 1.45 0.27
6 -1 -11 2.03 0.32
6 -1 -11 1.36 0.27
6 -1 -11 1.57 0.28
6 -1 -11 1.77 0.3
6 1 -11 1.18 0.25
-6 1 11 1.95 0.35
6 1 -11 1.7 0.31
6 1 -11 1.26 0.28
6 1 -11 1.96 0.3
6 1 -11 0.91 0.26
6 1 -11 1.1 0.26
6 1 -11 1.03 0.27
-6 1 11 1.54 0.32
5 -1 -11 44.91 3.65
-5 -1 11 39.84 3.2
5 -1 -11 44.85 2.6
5 -1 -11 44.09 2.64
-5 -1 11 39.54 3.4
5 -1 -11 40.86 2.45
5 -1 -11 41.15 3.68
5 -1 -11 38.02 3.23
-5 -1 11 41.48 3.24
-5 -1 11 41.54 3.22
5 -1 -11 47 2.71
-5 -1 11 38.86 3.22
-5 -1 11 36.51 3.22
5 -1 -11 42.05 2.42
5 -1 -11 41.78 2.74
5 1 -11 38.87 2.49
-5 1 11 35.78 3.06
5 1 -11 43.63 2.79
5 1 -11 43.78 2.67
5 1 -11 41.13 2.45
5 1 -11 42.83 2.86
-5 1 11 42.93 3.25
-5 1 11 38.22 3.22
5 1 -11 44.57 2.78
5 1 -11 37.72 2.55
5 1 -11 41.06 2.62
5 1 -11 45.7 2.75
-5 1 11 39.38 3.29
-4 -1 11 1.04 0.24
-4 -1 11 0.77 0.25
4 -1 -11 0.69 0.19
4 -1 -11 0.7 0.17
4 -1 -11 0.62 0.19
-4 -1 11 1.4 0.32
4 -1 -11 0.61 0.15
4 -1 -11 1.32 0.31
4 -1 -11 0.63 0.24
-4 -1 11 0.86 0.24
-4 -1 11 0.81 0.23
4 -1 -11 0.31 0.13
-4 -1 11 0.8 0.27
4 1 -11 0.97 0.23
-4 1 11 0.81 0.25
4 1 -11 0.98 0.2
-4 1 11 1.38 0.33
4 1 -11 0.74 0.2
-4 1 11 0.62 0.21
4 1 -11 0.59 0.2
4 1 -11 1 0.23
4 1 -11 0.31 0.14
4 1 -11 0.74 0.2
4 1 -11 0.87 0.24
4 1 -11 0.65 0.19
4 1 -11 0.82 0.23
4 1 -11 1.1 0.24
-4 1 11 0.44 0.2
3 -1 -11 11.12 1.02
3 -1 -11 10.73 0.87
-3 -1 11 11.06 0.95
-3 -1 11 10.99 0.88
3 -1 -11 10.55 0.9
-3 -1 11 10.9 0.89
3 -1 -11 10.74 1
-3 -1 11 9.77 0.85
-3 -1 11 10.62 0.86
3 1 -11 11.63 0.79
3 1 -11 8.34 0.67
3 1 -11 8.85 0.69
3 1 -11 10.5 0.74
3 1 -11 9.58 0.69
-3 1 11 10.12 0.9
-3 1 11 10.39 0.91
3 1 -11 9.45 0.71
3 1 -11 8.52 0.73
3 1 -11 9.48 0.75
3 1 -11 7.75 0.68
-3 1 11 10.36 0.9
3 1 -11 8.84 0.68
3 1 -11 8.81 0.76
3 1 -11 9.65 0.76
3 1 -11 10.83 0.73
-3 1 11 10.2 0.88
-3 1 11 11.19 0.92
-2 -1 11 2.51 0.28
-2 -1 11 2.88 0.32
-2 -1 11 2.61 0.34
-2 -1 11 2.74 0.32
2 -1 -11 2.79 0.35
2 -1 -11 2.82 0.33
-2 -1 11 2.65 0.32
2 -1 -11 2.51 0.31
2 -1 -11 2.4 0.27
2 -1 -11 2.56 0.36
-2 -1 11 2.55 0.3
-2 1 11 2.49 0.34
2 1 -11 2.22 0.28
2 1 -11 2.76 0.28
2 1 -11 2.67 0.33
2 1 -11 3.18 0.28
2 1 -11 3.04 0.31
-2 1 11 2.79 0.33
2 1 -11 2.28 0.29
2 1 -11 2.38 0.3
2 1 -11 2.25 0.3
-2 1 11 2.75 0.33
2 1 -11 2.11 0.26
2 1 -11 2.7 0.33
-2 1 11 2.45 0.32
2 1 -11 1.89 0.28
2 1 -11 2.55 0.28
2 1 -11 2.27 0.28
-2 1 11 2.5 0.33
1 -1 -11 249.87 17.08
1 -1 -11 214.71 16.86
-1 -1 11 235.84 15.49
-1 -1 11 237.38 18.1
-1 -1 11 208.02 17
-1 -1 11 246.26 17.77
1 -1 -11 247.95 19.54
-1 -1 11 235.65 17.09
-1 -1 11 229.18 17.12
1 -1 -11 253.68 17.38
-1 -1 11 240.99 17.15
1 -1 -11 229.47 15.99
-1 -1 11 235.81 17.05
-1 -1 11 230.1 17.01
-1 1 11 232.11 17.16
-1 1 11 201.11 18.07
1 1 -11 187.8 13.18
-1 1 11 247.26 17.07
-1 1 11 246.09 17.17
0 -1 -11 4.06 0.37
0 -1 11 4.56 0.47
0 -1 11 5.68 0.46
0 -1 11 4.44 0.41
0 -1 -11 5.19 0.46
0 -1 -11 4.59 0.42
0 -1 11 3.94 0.38
0 -1 11 4.87 0.41
0 -1 11 4.74 0.43
0 -1 11 4.82 0.45
0 -1 11 4.73 0.46
0 -1 11 5.46 0.53
0 -1 -11 3.91 0.38
0 -1 -11 4.64 0.45
0 -1 -11 4.56 0.48
0 -1 -11 4.39 0.44
0 1 11 4.28 0.45
0 1 -11 3.56 0.35
0 1 11 4.05 0.46
0 1 11 4.25 0.44
0 1 -11 3.71 0.36
0 1 11 3.63 0.4
0 1 -11 3.77 0.38
0 1 -11 3.11 0.37
0 1 11 5.13 0.46
0 1 -11 3.8 0.39
1 -1 11 148.61 11.58
1 -1 11 151.95 11.22
1 -1 11 149.75 11.42
-1 -1 -11 152.52 10.68
-1 -1 -11 148.2 9.48
-1 -1 -11 139.97 10.94
-1 -1 -11 163.12 10.12
1 -1 11 148.46 10.81
1 -1 11 129.61 10.77
-1 -1 -11 139.49 10.33
1 -1 11 148.97 10.77
-1 -1 -11 153.98 10.78
1 -1 11 153.66 11.99
1 1 11 159.73 10.85
-1 1 -11 120.43 8.36
-1 1 -11 120.78 8.67
1 1 11 141.88 10.84
1 1 11 159.98 10.78
1 1 11 141.95 10.76
1 1 11 146.27 11.44
2 -1 11 4 0.39
-2 -1 -11 4.11 0.4
-2 -1 -11 4 0.4
2 -1 11 4.52 0.44
-2 -1 -11 3.95 0.39
-2 -1 -11 4.24 0.44
2 -1 11 4.08 0.48
-2 -1 -11 3.6 0.39
-2 -1 -11 4.49 0.42
2 -1 11 4.2 0.48
2 -1 11 4.08 0.43
2 -1 11 4.12 0.47
2 -1 11 4.57 0.46
2 1 11 2.89 0.37
2 1 11 3.79 0.39
-2 1 -11 3.44 0.36
-2 1 -11 3.91 0.38
2 1 11 4.25 0.44
2 1 11 3.23 0.39
-2 1 -11 4.13 0.37
-2 1 -11 3.91 0.37
-2 1 -11 3.07 0.4
2 1 11 3.63 0.41
-2 1 -11 3.63 0.36
2 1 11 4.15 0.43
-2 1 -11 3.65 0.37
2 1 11 3.78 0.45
-2 1 -11 4.01 0.36
-2 1 -11 3.73 0.39
-2 1 -11 2.94 0.34
-2 1 -11 3.9 0.36
3 -1 11 0.58 0.2
-3 -1 -11 0.24 0.14
3 -1 11 0.36 0.16
3 -1 11 0.54 0.2
3 -1 11 0.71 0.23
-3 -1 -11 0.91 0.18
3 -1 11 0.25 0.17
-3 -1 -11 0.36 0.2
3 -1 11 0.41 0.18
-3 -1 -11 0.06 0.12
-3 -1 -11 0.64 0.19
3 -1 11 0.39 0.18
-3 -1 -11 1.07 0.22
-3 1 -11 0.44 0.17
3 1 11 0.32 0.17
3 1 11 0.71 0.21
3 1 11 0.4 0.18
3 1 11 0.3 0.14
3 1 11 1.52 0.29
-3 1 -11 1.04 0.23
-3 1 -11 0.5 0.18
3 1 11 0.39 0.2
-3 1 -11 0.46 0.19
-3 1 -11 0.83 0.18
-3 1 -11 0.73 0.2
3 1 11 0.32 0.17
3 1 11 0.44 0.18
-3 1 -11 0.96 0.24
3 1 11 0.51 0.18
3 1 11 0.69 0.18
-3 1 -11 1.05 0.22
-3 1 -11 0.91 0.2
-3 1 -11 0.82 0.2
-3 1 -11 1.01 0.22
3 1 11 0.44 0.17
4 -1 11 1.13 0.29
-4 -1 -11 1.92 0.37
-4 -1 -11 1.56 0.31
4 -1 11 0.92 0.27
-4 -1 -11 1.55 0.29
4 -1 11 1.38 0.3
-4 -1 -11 1.51 0.31
4 -1 11 1.18 0.3
4 -1 11 1.52 0.32
4 -1 11 1.78 0.36
-4 -1 -11 2.22 0.31
4 1 11 1.54 0.29
4 1 11 1.47 0.32
4 1 11 1.9 0.32
-4 1 -11 2 0.33
-4 1 -11 1.65 0.29
-4 1 -11 1.98 0.3
4 1 11 1.77 0.33
-4 1 -11 1.67 0.26
-4 1 -11 1.51 0.31
4 1 11 1.66 0.32
-4 1 -11 1.4 0.33
4 1 11 1.71 0.35
4 1 11 2.04 0.41
-4 1 -11 1.56 0.32
4 1 11 1.96 0.35
-4 1 -11 1.5 0.28
4 1 11 1.49 0.3
-4 1 -11 1.25 0.25
4 1 11 1.63 0.29
-4 1 -11 1.94 0.32
-5 1 -11 97.88 5.61
5 1 11 92.85 6
5 1 11 98.09 5.79
5 1 11 84.1 6.02
5 1 11 91.61 5.83
-5 1 -11 90.22 5.57
5 1 11 89.86 6.09
5 1 11 97.9 5.93
-5 1 -11 80.22 5.19
-5 1 -11 95.79 5.7
-5 1 -11 91.68 5.35
-5 1 -11 91.91 5.73
-6 -1 -11 0.35 0.18
6 1 11 0.61 0.18
6 1 11 0.55 0.18
-6 1 -11 0.9 0.22
-6 1 -11 0.81 0.23
6 1 11 1.34 0.27
-6 1 -11 0.72 0.24
-6 1 -11 0.62 0.2
-6 1 -11 0.69 0.23
6 1 11 0.51 0.19
6 1 11 0.55 0.2
-6 1 -11 0.7 0.23
6 1 11 0.86 0.24
-7 -1 -11 74.1 4.38
-7 -1 -11 69.4 4.28
7 -1 11 66.47 4.51
-7 -1 -11 75.55 4.32
7 -1 11 73.47 4.71
7 -1 11 64.49 4.72
-7 -1 -11 68.85 4.11
7 -1 11 72.92 4.44
7 -1 11 73.29 4.65
-7 1 -11 66.17 5.04
7 1 11 74.56 4.46
7 1 11 75.28 4.56
-7 1 -11 74.59 4.39
7 1 11 61.27 4.68
-7 1 -11 75.5 4.32
7 1 11 72.48 4.66
-7 1 -11 71.84 4.43
-7 1 -11 67.84 4.3
7 1 11 70.53 4.61
7 -2 -11 0.9 0.16
7 -2 -11 0.93 0.18
7 -2 -11 0.81 0.16
7 -2 -11 1.04 0.18
7 -2 -11 1.26 0.21
-7 2 11 0.87 0.19
7 2 -11 0.59 0.17
-7 2 11 0.97 0.21
-7 2 11 1.18 0.2
7 2 -11 1.12 0.23
7 2 -11 0.48 0.18
-7 2 11 0.95 0.22
7 2 -11 0.76 0.2
7 2 -11 0.92 0.23
7 2 -11 0.64 0.16
-7 2 11 0.7 0.18
7 2 -11 0.65 0.17
6 -2 -11 4.08 0.38
6 -2 -11 3.85 0.36
6 -2 -11 3.61 0.33
6 -2 -11 3.24 0.35
6 -2 -11 3.75 0.37
6 -2 -11 3.27 0.31
-6 2 11 4.47 0.44
6 2 -11 3.23 0.38
6 2 -11 3.9 0.42
-6 2 11 3.72 0.38
-6 2 11 2.93 0.36
6 2 -11 3.61 0.42
6 2 -11 3.94 0.41
6 2 -11 4.07 0.43
-6 2 11 3.82 0.41
6 2 -11 3.32 0.37
-6 2 11 3.99 0.44
6 2 -11 3.94 0.42
-6 2 11 4.26 0.44
6 2 -11 4.14 0.42
5 -2 -11 51.84 3.88
5 -2 -11 56.49 3.51
5 -2 -11 59.11 3.69
5 2 -11 57.52 3.56
5 2 -11 61.95 3.92
-5 2 11 67.17 3.83
5 2 -11 57.87 4.03
5 2 -11 64.79 3.84
5 2 -11 58.61 4.08
-5 2 11 57.44 3.9
-5 2 11 65.52 3.84
5 2 -11 59.5 3.52
5 2 -11 52.74 3.94
-5 2 11 66.64 3.6
5 2 -11 58.01 3.96
-5 2 11 67.6 4
5 2 -11 63.65 3.78
-5 2 11 58.29 3.77
5 2 -11 61.71 3.99
5 2 -11 57.02 3.66
-4 -2 11 21.81 1.89
-4 -2 11 23.51 1.93
4 -2 -11 22.14 2.13
-4 -2 11 21.97 1.9
4 -2 -11 22.61 2.18
-4 -2 11 21.77 2.03
4 -2 -11 21.74 1.92
4 -2 -11 19.77 1.86
-4 2 11 21.74 1.99
4 2 -11 23.88 1.64
-4 2 11 24.32 1.62
-4 2 11 25.99 1.66
4 2 -11 24.21 1.5
4 2 -11 21.84 1.6
4 2 -11 25.72 1.67
4 2 -11 22.47 1.47
-4 2 11 25.54 1.56
4 2 -11 23.28 1.5
4 2 -11 22.48 1.55
4 2 -11 23.91 1.63
4 2 -11 24.26 1.53
4 2 -11 22.28 1.56
4 2 -11 23.41 1.68
-4 2 11 22.27 1.65
4 2 -11 22.43 1.58
4 2 -11 25.25 1.7
4 2 -11 23.36 1.54
4 2 -11 25.58 1.69
-4 2 11 23.2 2.01
-4 2 11 26.87 1.75
-4 2 11 23.6 1.62
4 2 -11 26.2 1.62
4 2 -11 24.14 1.7
3 -2 -11 127.72 10.09
3 -2 -11 150.33 12.38
-3 -2 11 139.28 10.76
3 -2 -11 150.91 11.01
-3 -2 11 147.58 10.87
-3 -2 11 157.84 11.49
-3 -2 11 146.08 10.81
3 -2 -11 144.29 10.8
3 -2 -11 138.65 12.13
-3 -2 11 145.82 10.84
3 2 -11 156.93 9.35
3 2 -11 150.71 9.35
3 2 -11 135 8.35
3 2 -11 139.74 8.37
-3 2 11 149.9 8.85
3 2 -11 139.74 8.37
3 2 -11 147.87 8.18
3 2 -11 146.63 9.41
-3 2 11 138.47 9.15
3 2 -11 146.86 9.56
3 2 -11 153.92 8.26
-3 2 11 143.53 8.91
-3 2 11 128.17 10.84
3 2 -11 148.21 8.99
-3 2 11 143.19 8.39
3 2 -11 156.17 8.83
3 2 -11 138.75 8.69
3 2 -11 143.2 8.42
3 2 -11 151.29 9.65
-3 2 11 142.94 9.28
-3 2 11 146.75 10.89
3 2 -11 154.96 9.37
3 2 -11 156.95 8.95
3 2 -11 153.26 9.19
3 2 -11 139.74 8.4
3 2 -11 151.73 8.42
-3 2 11 131.95 8.9
3 2 -11 155.87 9.15
3 2 -11 143.29 8.69
3 2 -11 137.5 8.73
3 2 -11 138.55 8.85
-3 2 11 147.34 9.27
-2 -2 11 3.38 0.39
-2 -2 11 3.01 0.43
2 -2 -11 3.02 0.45
-2 -2 11 2.98 0.4
2 -2 -11 3 0.4
-2 -2 11 3.52 0.45
2 -2 -11 3.14 0.41
2 -2 -11 2.45 0.36
-2 -2 11 3.34 0.43
-2 -2 11 2.74 0.37
2 -2 -11 4.2 0.46
2 -2 -11 2.83 0.37
-2 -2 11 3.18 0.43
2 2 -11 4.03 0.42
2 2 -11 3.09 0.37
2 2 -11 3.1 0.36
2 2 -11 3.48 0.39
2 2 -11 3.47 0.39
2 2 -11 3.46 0.34
2 2 -11 3.51 0.39
-2 2 11 3.05 0.44
-2 2 11 2.43 0.45
2 2 -11 2.75 0.35
2 2 -11 3.1 0.42
-2 2 11 3.51 0.6
2 2 -11 3.4 0.44
2 2 -11 3.56 0.39
2 2 -11 3.62 0.49
-2 2 11 3.18 0.48
2 2 -11 3.23 0.38
2 2 -11 3.48 0.36
-2 2 11 3.62 0.5
-2 2 11 3.45 0.47
2 2 -11 3.32 0.39
2 2 -11 3.09 0.41
-2 2 11 3.29 0.42
2 2 -11 3.12 0.36
2 2 -11 3.3 0.35
2 2 -11 3.76 0.36
2 2 -11 3 0.35
-2 2 11 2.72 0.4
2 2 -11 2.94 0.35
2 2 -11 3.09 0.4
2 2 -11 2.85 0.36
-2 2 11 3.53 0.44
2 2 -11 3.2 0.38
2 2 -11 3.05 0.36
-2 2 11 2.94 0.49
2 2 -11 3.41 0.41
-1 -2 11 7.63 0.82
-1 -2 11 7.65 0.75
1 -2 -11 8.93 0.74
-1 -2 11 6.93 0.69
1 -2 -11 7.35 0.7
-1 -2 11 8.15 0.67
-1 -2 11 8.6 0.74
1 -2 -11 8.1 0.73
1 -2 -11 7.02 0.6
1 -2 -11 7.24 0.67
-1 -2 11 8.53 0.75
1 -2 -11 6.81 0.78
-1 -2 11 8.3 0.78
1 -2 -11 7.91 0.68
-1 2 11 8.1 0.6
1 2 -11 7.71 0.62
1 2 -11 7.8 0.64
1 2 -11 7.82 0.71
1 2 -11 7.57 0.6
-1 2 11 6.88 0.73
1 2 -11 6.73 0.66
1 2 -11 8.42 0.62
1 2 -11 8.18 0.64
-1 2 11 6.58 0.65
-1 2 11 7.68 0.63
-1 2 11 7.41 0.71
1 2 -11 7.52 0.61
1 2 -11 7.89 0.62
1 2 -11 7.62 0.58
1 2 -11 7.26 0.62
1 2 -11 7.37 0.61
1 2 -11 7.58 0.61
1 2 -11 8.54 0.62
-1 2 11 6.93 0.63
1 2 -11 7.45 0.62
1 2 -11 7.06 0.63
1 2 -11 7.84 0.6
1 2 -11 8.01 0.61
1 2 -11 7.67 0.58
1 2 -11 8.85 0.65
-1 2 11 6.42 0.72
-1 2 11 6.8 0.74
1 2 -11 7.79 0.65
1 2 -11 8.3 0.6
1 2 -11 7.37 0.6
1 2 -11 8.24 0.65
1 2 -11 7.34 0.58
1 2 -11 7.86 0.63
-1 2 11 7.37 0.75
1 2 -11 7.33 0.63
1 2 -11 7.18 0.59
1 2 -11 7.03 0.62
-1 2 11 6.95 0.65
0 -2 11 3.51 0.48
0 -2 -11 2.86 0.34
0 -2 11 3.52 0.4
0 -2 -11 2.94 0.38
0 -2 11 3.26 0.4
0 -2 11 3.32 0.35
0 -2 11 3.59 0.41
0 -2 -11 3.31 0.38
0 -2 11 3.36 0.43
0 -2 -11 3.02 0.37
0 -2 11 3.5 0.46
0 -2 -11 2.88 0.39
0 -2 -11 3.27 0.4
0 2 -11 3.47 0.37
0 2 11 2.81 0.37
0 2 -11 3.38 0.37
0 2 11 3.31 0.43
0 2 -11 3.09 0.36
0 2 -11 2.93 0.35
0 2 11 3.14 0.33
0 2 11 3.03 0.44
0 2 11 2.76 0.37
0 2 -11 3.42 0.36
0 2 -11 3.34 0.38
0 2 -11 3.28 0.38
0 2 -11 2.84 0.34
0 2 -11 3.16 0.4
0 2 11 3.29 0.38
0 2 -11 3.47 0.4
0 2 -11 2.92 0.32
0 2 -11 3.38 0.38
0 2 11 3.96 0.37
0 2 -11 3.02 0.35
0 2 11 3.36 0.44
0 2 -11 3.82 0.35
0 2 -11 3.49 0.37
0 2 -11 3.35 0.35
0 2 -11 3.17 0.36
0 2 -11 2.98 0.33
0 2 -11 3.59 0.36
0 2 -11 4.37 0.4
0 2 11 2.9 0.41
0 2 -11 3.2 0.38
0 2 11 3.03 0.43
0 2 -11 3.63 0.32
0 2 -11 3.19 0.34
0 2 -11 3.19 0.34
0 2 -11 3.24 0.43
0 2 -11 3.18 0.36
0 2 -11 3.76 0.37
-1 -2 -11 70.38 4.77
1 -2 11 70.3 5.66
-1 -2 -11 60.48 4.9
1 -2 11 69.7 5.28
-1 -2 -11 57.1 5.11
1 -2 11 72.25 5.49
-1 -2 -11 68.19 4.48
1 -2 11 65.86 5.75
1 -2 11 71.12 5.06
-1 -2 -11 66.11 4.87
-1 -2 -11 69.59 5.08
-1 -2 -11 72.53 5.05
-1 2 -11 63.09 4.24
-1 2 -11 65.8 4.06
-1 2 -11 64.06 4.32
-1 2 -11 71.98 4.16
1 2 11 72.14 4.33
1 2 11 68.59 5.03
-1 2 -11 71.13 4.17
-1 2 -11 68.57 3.91
-1 2 -11 68.21 4.23
-1 2 -11 67.7 4.01
-1 2 -11 72.61 4.13
-1 2 -11 63.02 3.91
-1 2 -11 63.61 4.16
-1 2 -11 70.02 3.97
-1 2 -11 72.67 4.22
-1 2 -11 70.52 4.68
-1 2 -11 62.18 3.82
1 2 11 64.27 4.14
1 2 11 65.02 4.97
-1 2 -11 72.79 4.85
1 2 11 64.47 4.53
1 2 11 68.06 5.13
-1 2 -11 70.04 3.99
1 2 11 56.23 4.39
-1 2 -11 68.3 3.93
1 2 11 65.48 5.12
1 2 11 58.77 4.3
1 2 11 68.15 4.35
1 2 11 70.76 4.96
-1 2 -11 70.63 4
-2 -2 -11 2.49 0.34
-2 -2 -11 2.38 0.35
-2 -2 -11 1.51 0.29
2 -2 11 2.74 0.44
2 -2 11 2.11 0.38
-2 -2 -11 1.57 0.3
2 -2 11 1.86 0.43
-2 -2 -11 1.91 0.35
2 -2 11 2.69 0.46
-2 -2 -11 2.47 0.36
-2 -2 -11 2.27 0.37
2 -2 11 2.13 0.32
2 -2 11 2.11 0.43
2 2 11 1.42 0.3
-2 2 -11 2.27 0.39
2 2 11 2.7 0.42
-2 2 -11 2.1 0.35
2 2 11 2.71 0.45
2 2 11 2.41 0.37
2 2 11 1.34 0.28
2 2 11 1.46 0.34
-2 2 -11 2.74 0.38
-2 2 -11 2.3 0.33
2 2 11 2.66 0.44
-2 2 -11 2.2 0.33
2 2 11 2.18 0.35
-2 2 -11 2.47 0.35
-2 2 -11 1.91 0.32
2 2 11 1.81 0.35
-2 2 -11 2.27 0.35
-2 2 -11 1.72 0.29
-2 2 -11 1.69 0.34
2 2 11 2.21 0.33
-2 2 -11 2.35 0.39
-2 2 -11 2.08 0.34
3 -2 11 183.47 14.17
3 -2 11 171.32 14.64
-3 -2 -11 178.63 11.62
3 -2 11 171.46 14.86
3 -2 11 164.74 13.7
3 -2 11 155.2 15.11
-3 -2 -11 176.02 13.06
-3 -2 -11 157.56 12.62
-3 -2 -11 148.3 13.4
-3 -2 -11 150.19 12.32
-3 -2 -11 173.74 12.8
-3 -2 -11 174.72 12.68
-3 2 -11 171.11 12.13
3 2 11 187.14 12.73
3 2 11 196.88 12.94
-3 2 -11 192.09 10.68
-3 2 -11 193.62 10.05
-3 2 -11 183.57 10.96
-3 2 -11 181.3 10.25
3 2 11 194.82 11.74
3 2 11 189.59 12.8
3 2 11 193.46 11.21
-3 2 -11 194.94 10.31
3 2 11 171.71 11.51
-3 2 -11 193.84 10.77
3 2 11 173.99 11.31
-3 2 -11 188.94 10.89
-3 2 -11 180.34 12.53
-4 2 -11 1.92 0.33
-4 2 -11 2.41 0.38
-4 2 -11 1.42 0.3
4 2 11 2.1 0.4
-4 2 -11 2.08 0.35
-4 2 -11 2.05 0.4
4 2 11 2.01 0.38
4 2 11 1.69 0.31
-4 2 -11 1.82 0.33
-4 2 -11 1.67 0.31
-4 2 -11 2.05 0.39
4 2 11 1.86 0.39
4 2 11 2.17 0.36
4 2 11 2.32 0.41
4 2 11 1.79 0.32
5 2 11 19.03 1.36
-5 2 -11 18.37 1.33
-5 2 -11 15.72 1.41
-5 2 -11 20.15 1.35
5 2 11 18.69 1.39
5 2 11 20.46 1.42
5 2 11 20.07 1.41
5 2 11 17.25 1.48
5 2 11 19.93 1.36
-5 2 -11 17.71 1.5
-5 2 -11 18.06 1.22
-5 2 -11 20.25 1.32
-5 2 -11 21.02 1.34
-6 2 -11 8.76 0.78
-6 2 -11 9.02 0.68
6 2 11 7.94 0.67
6 2 11 8.98 0.68
6 2 11 9.98 0.73
-6 2 -11 8.78 0.7
-6 2 -11 7.98 0.66
-6 2 -11 7.96 0.72
6 2 11 8.28 0.69
6 2 11 9.11 0.72
-6 2 -11 9.29 0.7
6 2 11 8.61 0.71
7 -2 11 13.76 0.98
7 -2 11 13.99 0.97
-7 -2 -11 13.6 0.86
-7 -2 -11 14.66 0.91
-7 -2 -11 13.32 0.92
7 -2 11 12.81 0.98
7 2 11 15.02 0.95
7 2 11 14.04 0.96
7 2 11 13.54 0.97
-7 2 -11 12.68 1.06
-7 2 -11 14.26 0.92
-7 2 -11 15.02 0.95
6 -3 -11 4.2 0.34
6 -3 -11 3.95 0.3
6 -3 -11 4.09 0.33
6 3 -11 3.72 0.35
6 3 -11 3.82 0.36
6 3 -11 4.26 0.37
6 3 -11 3.61 0.34
-6 3 11 3.91 0.33
-6 3 11 4.35 0.36
-6 3 11 4.28 0.38
6 3 -11 3.52 0.35
6 3 -11 4.05 0.36
6 3 -11 3.69 0.37
5 -3 -11 25.62 1.6
5 -3 -11 27.06 1.68
5 3 -11 25.81 1.82
-5 3 11 25.36 1.74
-5 3 11 26.65 1.74
-5 3 11 29.38 1.78
5 3 -11 27.25 1.84
5 3 -11 24.63 1.72
5 3 -11 26.87 1.86
5 3 -11 25.41 1.62
5 3 -11 29.37 1.77
5 3 -11 24.23 1.64
-5 3 11 29.4 1.88
5 3 -11 28.9 1.83
5 3 -11 23.27 1.68
5 3 -11 26.72 1.85
5 3 -11 28.38 1.79
-5 3 11 28.89 1.69
5 3 -11 26.41 1.88
4 3 -11 6.63 0.59
4 3 -11 7.6 0.66
-4 3 11 9.57 0.76
4 3 -11 7.76 0.64
4 3 -11 8.04 0.68
4 3 -11 7.12 0.63
4 3 -11 7.66 0.72
4 3 -11 7.15 0.68
4 3 -11 7.93 0.69
4 3 -11 7.23 0.59
4 3 -11 7.42 0.66
-4 3 11 7.5 0.65
4 3 -11 7.52 0.63
4 3 -11 7.05 0.66
4 3 -11 6.65 0.64
-4 3 11 7.8 0.66
-4 3 11 7.07 0.66
-4 3 11 7.03 0.62
-4 3 11 6.99 0.66
4 3 -11 6.77 0.59
4 3 -11 7.2 0.6
3 3 -11 24.97 1.76
3 3 -11 24.25 1.6
3 3 -11 24.09 1.6
-3 3 11 23.94 1.75
3 3 -11 25.08 1.76
3 3 -11 26.18 1.77
-3 3 11 24.73 1.65
3 3 -11 22.22 1.57
3 3 -11 26.27 1.74
3 3 -11 22.1 1.61
-3 3 11 24.96 1.78
3 3 -11 24.08 1.68
3 3 -11 23.12 1.63
-3 3 11 21.26 1.67
3 3 -11 22.51 1.62
3 3 -11 23.58 1.77
3 3 -11 26.01 1.74
-3 3 11 24.11 1.71
3 3 -11 25.06 1.67
3 3 -11 24.65 1.67
-3 3 11 24.03 1.62
3 3 -11 24.03 1.56
3 3 -11 23.96 1.51
3 3 -11 25.51 1.6
3 3 -11 26.85 1.71
2 3 -11 8.14 0.65
2 3 -11 8.18 0.71
-2 3 11 6.73 0.73
2 3 -11 7.65 0.72
-2 3 11 7.36 0.7
-2 3 11 6.26 0.61
2 3 -11 6.9 0.66
-2 3 11 7.05 0.72
2 3 -11 7.94 0.69
2 3 -11 7.34 0.68
-2 3 11 7.48 0.69
2 3 -11 6.54 0.63
2 3 -11 6.87 0.62
-2 3 11 7.37 0.66
2 3 -11 7.17 0.7
2 3 -11 7.4 0.67
2 3 -11 7.71 0.66
2 3 -11 6.53 0.68
2 3 -11 7.79 0.68
2 3 -11 7.55 0.7
2 3 -11 7.69 0.61
2 3 -11 7.63 0.63
2 3 -11 7.05 0.64
2 3 -11 7.91 0.69
2 3 -11 7.98 0.69
2 3 -11 7.43 0.68
-2 3 11 8.05 0.72
2 3 -11 7.44 0.63
2 3 -11 8.18 0.67
2 3 -11 7.3 0.73
1 3 -11 153.19 9.88
1 3 -11 159.85 9.77
1 3 -11 158.77 9.36
1 3 -11 155.51 9.11
1 3 -11 158.82 9.86
1 3 -11 162.7 8.85
1 3 -11 152.85 9.61
1 3 -11 154.91 11
1 3 -11 153.27 9.08
1 3 -11 160.44 9.45
-1 3 11 159.35 9.57
1 3 -11 167.69 9.05
1 3 -11 159.03 9.42
1 3 -11 162.8 9.05
1 3 -11 162.83 9.57
1 3 -11 157.46 9.55
-1 3 11 150.43 9.87
-1 3 11 150.17 8.96
-1 3 11 131.44 11.35
1 3 -11 167.7 9.09
1 3 -11 158.23 10.05
-1 3 11 155.36 9.99
-1 3 11 140.6 9.85
1 3 -11 159.12 9.55
1 3 -11 152.86 9.36
1 3 -11 155.75 9.42
1 3 -11 157.51 9.43
1 3 -11 163.97 9.04
-1 3 11 141.21 11.22
1 3 -11 160.18 8.82
1 3 -11 153.81 10.66
0 3 -11 6.83 0.59
0 3 -11 6.47 0.61
0 3 -11 6.86 0.61
0 3 -11 6.51 0.51
0 3 11 6.35 0.71
0 3 -11 6.13 0.56
0 3 -11 6.14 0.58
0 3 -11 6.48 0.65
0 3 -11 6.64 0.62
0 3 -11 6.41 0.54
0 3 11 6.23 0.58
0 3 11 5.57 0.52
0 3 -11 7.03 0.61
0 3 -11 7.06 0.64
0 3 11 6.38 0.63
0 3 -11 6.83 0.6
0 3 -11 6.75 0.59
0 3 -11 5.94 0.63
0 3 11 5.63 0.67
0 3 -11 6.75 0.62
0 3 11 5.99 0.71
0 3 -11 6.95 0.55
0 3 -11 5.38 0.66
0 3 -11 6.56 0.63
0 3 -11 6.55 0.6
0 3 -11 6.71 0.56
0 3 11 6.46 0.63
0 3 -11 6.18 0.6
0 3 -11 5.86 0.58
-1 3 -11 77.4 4.34
-1 3 -11 69.51 4.63
-1 3 -11 71.01 4.45
1 3 11 73.02 5.45
-1 3 -11 75.43 4.48
-1 3 -11 72.88 4.34
1 3 11 64.27 4.89
-1 3 -11 73.49 4.49
-1 3 -11 66.94 4.19
1 3 11 71.28 4.68
-1 3 -11 75.99 4.29
-1 3 -11 70.48 4.68
1 3 11 72.25 5.36
1 3 11 77.21 4.72
-1 3 -11 71.58 4.58
1 3 11 70.33 5.38
-1 3 -11 73 4.25
1 3 11 70.19 4.48
-1 3 -11 72.88 4.35
-1 3 -11 75.25 4.26
-1 3 -11 71.44 5.05
-1 3 -11 69.43 5.23
-1 3 -11 73.85 4.52
-1 3 -11 75.45 4.53
-1 3 -11 78.19 4.58
-2 3 -11 19.73 1.34
-2 3 -11 19.4 1.32
-2 3 -11 20.97 1.43
-2 3 -11 19.5 1.4
2 3 11 17.49 1.49
2 3 11 20.46 1.67
2 3 11 21.45 1.62
-2 3 -11 19.98 1.42
-2 3 -11 19.32 1.39
-2 3 -11 19.49 1.31
-2 3 -11 19.02 1.51
2 3 11 19.5 1.65
2 3 11 20.91 1.4
-2 3 -11 19.76 1.34
-2 3 -11 18.52 1.57
-2 3 -11 19.78 1.37
-2 3 -11 20.67 1.38
2 3 11 18.07 1.42
2 3 11 18.97 1.37
-3 3 -11 15.62 1.09
-3 3 -11 16.77 1.16
-3 3 -11 16.01 1.17
-3 3 -11 15.26 1.12
-3 3 -11 15.1 1.11
-3 3 -11 14.59 1.11
-3 3 -11 15.5 1.03
3 3 11 15.85 1.27
-3 3 -11 14.66 1.27
3 3 11 13.33 1.18
3 3 11 15.02 1.17
3 3 11 14.27 1.07
-3 3 -11 14.11 1.2
3 3 11 17.69 1.34
3 3 11 15.69 1.23
3 3 11 16.22 1.32
4 3 11 3.25 0.39
-4 3 -11 3.36 0.45
4 3 11 2.93 0.38
-4 3 -11 3.14 0.35
4 3 11 2.94 0.4
4 3 11 3.36 0.39
-4 3 -11 2.64 0.38
-4 3 -11 2.84 0.39
-4 3 -11 2.94 0.39
-4 3 -11 3.61 0.48
-4 3 -11 3.59 0.41
4 3 11 2.91 0.43
-4 3 -11 2.81 0.46
4 3 11 3.46 0.43
5 3 11 85.9 5.34
5 3 11 86.19 5.52
5 3 11 73.07 5.17
-5 3 -11 78.9 5.92
-5 3 -11 79.22 5.72
5 3 11 87.22 5.28
-5 3 -11 86.69 5.19
-5 3 -11 84.4 5.13
-5 3 -11 87.1 5.05
5 3 11 91.23 5.45
5 3 11 78.92 6
-3 4 11 18.94 1.47
-3 4 11 22.85 1.45
-3 4 11 22.22 1.48
-3 4 11 23.76 1.37
-2 4 11 2.12 0.34
-2 4 11 1.86 0.29
-2 4 11 1.86 0.29
-2 4 11 1.83 0.3
-2 4 11 1.65 0.28
-2 4 11 1.69 0.29
-1 4 11 0.38 0.2
-1 4 11 0.48 0.2
-1 4 11 0.54 0.21
-1 4 11 0.67 0.22
-1 4 11 0.4 0.2
-1 4 11 0.89 0.21
0 4 -11 20.43 1.45
0 4 -11 20.61 1.3
0 4 -11 19.22 1.34
0 4 11 19.21 1.57
0 4 11 20.17 1.39
0 4 -11 19.51 1.33
0 4 11 16.59 1.52
0 4 -11 15.85 1.48
0 4 11 19.98 1.39
0 4 11 21.12 1.59
0 4 11 21.02 1.32
0 4 -11 19.92 1.33
0 4 -11 20.7 1.32
-1 4 -11 8.44 0.87
-1 4 -11 11.19 0.82
-1 4 -11 11.16 0.8
1 4 11 12.32 0.97
1 4 11 9.03 0.82
1 4 11 9.32 0.92
-1 4 -11 11.58 0.87
-1 4 -11 12.17 0.8
-1 4 -11 10.42 0.83
-1 4 -11 11.26 0.75
-1 4 -11 10.77 0.76
-1 4 -11 11.1 0.8
1 4 11 11 0.81
-1 4 -11 10.65 0.79
1 4 11 11.51 0.82
1 4 11 10.72 0.96
2 4 11 0.09 0.17
2 4 11 0 0.15
-2 4 -11 0.16 0.16
-2 4 -11 0.07 0.2
-2 4 -11 0.08 0.18
2 4 11 -0.01 0.17
-2 4 -11 0.18 0.13
-2 4 -11 0.46 0.19
-2 4 -11 0.02 0.19
2 4 11 -0.03 0.16
-2 4 -11 -0.08 0.18
-2 4 -11 0.27 0.16
-2 4 -11 0.11 0.16
2 4 11 0.02 0.11
2 4 11 0.2 0.16
-2 4 -11 0 0.16
-3 4 -11 28.43 1.89
3 4 11 33.72 2.3
3 4 11 31.09 2.31
3 4 11 31.6 2.11
-3 4 -11 30.17 1.95
-3 4 -11 28.96 2.14
8 0 -12 31.98 2.06
-8 0 12 29.49 2.02
8 0 -12 32.36 1.97
8 0 -12 28.27 2.04
-8 0 12 33.63 1.96
8 0 -12 28.31 1.98
8 0 -12 31.74 1.94
-8 0 12 31.65 2.04
-8 0 12 32.74 1.98
7 0 -12 0.01 0.11
7 0 -12 0.13 0.12
7 0 -12 0.01 0.14
7 0 -12 0.09 0.11
7 0 -12 0 0.14
7 0 -12 -0.05 0.12
6 0 -12 75.12 4.54
6 0 -12 65.38 4.28
6 0 -12 80.2 4.61
6 0 -12 74.21 4.83
6 0 -12 77.01 4.7
6 0 -12 72.02 4.8
6 0 -12 73.71 4.22
5 0 -12 0.04 0.13
5 0 -12 0.12 0.15
-5 0 12 0 0.15
5 0 -12 -0.04 0.11
5 0 -12 -0.15 0.12
5 0 -12 0.1 0.14
-5 0 12 0.16 0.18
-5 0 12 -0.05 0.16
-5 0 12 0.13 0.14
5 0 -12 0.07 0.13
5 0 -12 0.19 0.11
-5 0 12 -0.01 0.11
5 0 -12 0.05 0.12
-5 0 12 0.07 0.17
5 0 -12 0.04 0.11
4 0 -12 4.76 0.41
4 0 -12 4.43 0.39
-4 0 12 4.71 0.49
4 0 -12 4.33 0.38
-4 0 12 4.35 0.48
4 0 -12 4.36 0.54
-4 0 12 4.5 0.5
-4 0 12 4.2 0.48
4 0 -12 4.2 0.38
4 0 -12 3.95 0.36
-4 0 12 4.45 0.48
-4 0 12 5.32 0.5
4 0 -12 4.22 0.38
4 0 -12 4.63 0.37
4 0 -12 3.85 0.4
-3 0 12 0.19 0.12
-3 0 12 0.17 0.11
3 0 -12 0.19 0.14
-3 0 12 0.16 0.12
3 0 -12 0.09 0.12
-3 0 12 0.06 0.09
3 0 -12 0.12 0.1
3 0 -12 0.03 0.13
-3 0 12 0.17 0.12
3 0 -12 0.08 0.11
3 0 -12 0.14 0.11
3 0 -12 0.01 0.1
-3 0 12 0.03 0.11
3 0 -12 0.06 0.1
-3 0 12 0.12 0.13
3 0 -12 0.01 0.08
3 0 -12 0.13 0.1
3 0 -12 0.17 0.11
3 0 -12 0.01 0.1
-2 0 12 106.8 8.05
2 0 -12 96.79 6.22
-2 0 12 122.63 8.08
2 0 -12 94.65 6.74
2 0 -12 99.38 6.43
-2 0 12 117.66 8.12
2 0 -12 95.7 6.08
2 0 -12 94.2 6.2
2 0 -12 91.16 6.22
-2 0 12 111.34 7.31
2 0 -12 119.53 8.22
-2 0 12 111.77 8.56
-2 0 12 120.4 8.06
-2 0 12 120.31 8.19
-2 0 12 120.45 8.13
-2 0 12 117.3 8.08
2 0 -12 110.92 8.05
-1 0 12 0.1 0.11
1 0 -12 -0.08 0.09
-1 0 12 0.12 0.1
-1 0 12 0.1 0.1
-1 0 12 0.03 0.08
-1 0 12 0.02 0.08
-1 0 12 -0.03 0.08
1 0 -12 -0.05 0.06
-1 0 12 0.14 0.08
1 0 -12 -0.01 0.08
1 0 -12 -0.08 0.08
1 0 -12 0 0.09
1 0 -12 0.11 0.09
-1 0 12 0.17 0.13
-1 0 12 -0.01 0.09
-1 0 12 -0.01 0.08
0 0 -12 206.6 14.35
0 0 12 185.69 15.9
0 0 12 198.67 14.29
0 0 12 173.37 14.89
0 0 12 212.27 14.43
0 0 12 217.39 14.41
0 0 12 187.26 15.2
0 0 12 188.61 14.31
0 0 -12 190.64 13.44
0 0 -12 201.31 14.6
0 0 -12 178.54 14.17
0 0 12 196.29 14.3
-1 0 -12 0.05 0.09
-1 0 -12 0.05 0.09
-1 0 -12 0.07 0.09
1 0 12 0.09 0.1
1 0 12 0.16 0.09
1 0 12 0.12 0.09
1 0 12 0.13 0.11
-1 0 -12 0.12 0.13
-1 0 -12 0.01 0.09
-1 0 -12 0.06 0.08
1 0 12 0.01 0.08
1 0 12 0.12 0.08
-1 0 -12 -0.04 0.06
-1 0 -12 -0.02 0.09
-1 0 -12 0.06 0.1
1 0 12 0.01 0.09
-2 0 -12 111.69 6.72
-2 0 -12 100.59 7.3
2 0 12 118.1 8.12
2 0 12 113.88 7.65
-2 0 -12 89.16 6.15
2 0 12 96.86 8.14
2 0 12 108.72 7.94
-2 0 -12 93.07 6.11
2 0 12 111.03 7.67
-2 0 -12 93.88 5.9
-2 0 -12 93.05 5.9
-2 0 -12 87.07 6.23
-2 0 -12 96.09 5.9
2 0 12 103.21 7.64
-2 0 -12 119.66 7.58
2 0 12 108.18 8.45
-3 0 -12 0.19 0.17
-3 0 -12 0.13 0.14
-3 0 -12 0 0.1
-3 0 -12 0.18 0.14
-3 0 -12 0.13 0.14
3 0 12 0.25 0.14
-3 0 -12 0.08 0.12
3 0 12 0.04 0.08
3 0 12 0.3 0.17
3 0 12 0.53 0.19
-3 0 -12 0.17 0.14
-3 0 -12 0.05 0.1
3 0 12 0.14 0.15
-3 0 -12 0.16 0.13
3 0 12 0.12 0.13
3 0 12 -0.04 0.08
-3 0 -12 0.11 0.14
-3 0 -12 -0.06 0.09
4 0 12 46.16 3.91
4 0 12 47.03 3.99
-4 0 -12 45.81 3.03
-4 0 -12 47.56 2.91
-4 0 -12 50.59 2.86
4 0 12 50.94 3.78
-4 0 -12 51.28 3.34
-4 0 -12 48.76 3.62
-4 0 -12 53.16 3.77
-4 0 -12 47.94 3.1
-4 0 -12 52.18 3.07
-4 0 -12 55 2.95
-4 0 -12 44.7 3.09
-5 0 -12 0.16 0.16
5 0 12 -0.01 0.11
-5 0 -12 0.16 0.16
-5 0 -12 0.24 0.17
5 0 12 0.16 0.2
-5 0 -12 0.04 0.13
5 0 12 0.04 0.11
5 0 12 0.36 0.22
5 0 12 0.1 0.21
-5 0 -12 -0.06 0.16
5 0 12 0.14 0.2
5 0 12 -0.11 0.13
-5 0 -12 0.13 0.14
-5 0 -12 0.06 0.19
-5 0 -12 0.18 0.16
-5 0 -12 -0.04 0.19
-6 0 -12 98.6 5.63
6 0 12 96.73 6.06
6 0 12 83.61 5.81
6 0 12 96.4 5.93
-6 0 -12 92.54 5.37
-6 0 -12 95.56 5.72
6 0 12 93.34 6.01
6 0 12 88.14 6.12
-6 0 -12 96.4 5.6
-6 0 -12 81.63 5.21
6 0 12 99.9 5.81
-6 0 -12 87.73 5.74
7 0 12 0.14 0.11
7 0 12 0.1 0.13
-7 0 -12 0.44 0.15
7 0 12 0.1 0.11
-7 0 -12 0.14 0.13
-7 0 -12 0.2 0.14
-7 0 -12 0.16 0.15
-7 0 -12 0.18 0.12
7 0 12 0.15 0.12
7 0 12 0.16 0.13
8 -1 -12 14.54 0.94
8 -1 -12 12.49 0.94
8 -1 -12 14.53 0.93
8 1 -12 15.05 0.95
-8 1 12 13 0.97
-8 1 12 15.37 0.96
8 1 -12 14.38 0.94
8 1 -12 15.1 1
-8 1 12 14.29 0.94
7 -1 -12 2.08 0.26
7 -1 -12 1.87 0.26
7 -1 -12 2.17 0.27
7 -1 -12 2.1 0.29
7 -1 -12 2.04 0.26
-7 1 12 2.48 0.34
-7 1 12 3.01 0.38
7 1 -12 1.99 0.3
7 1 -12 2.41 0.35
7 1 -12 2.37 0.33
-7 1 12 2.1 0.28
7 1 -12 2.04 0.29
-7 1 12 2.98 0.37
7 1 -12 1.75 0.28
7 1 -12 1.91 0.26
-7 1 12 3.24 0.41
7 1 -12 1.43 0.28
6 -1 -12 0.76 0.21
6 -1 -12 1.14 0.25
6 -1 -12 0.87 0.18
6 -1 -12 0.74 0.21
6 -1 -12 0.83 0.19
6 1 -12 0.68 0.24
6 1 -12 0.6 0.24
-6 1 12 1.29 0.27
6 1 -12 0.56 0.19
6 1 -12 0.96 0.24
-6 1 12 1.11 0.24
6 1 -12 1.2 0.27
6 1 -12 0.86 0.25
6 1 -12 0.91 0.21
6 1 -12 0.77 0.22
-5 -1 12 3.92 0.53
5 -1 -12 4.11 0.38
5 -1 -12 3.83 0.48
5 -1 -12 4.08 0.39
5 -1 -12 3.49 0.34
5 -1 -12 4.08 0.4
5 -1 -12 4.26 0.37
5 -1 -12 3.42 0.35
-5 -1 12 3.84 0.47
5 -1 -12 4.36 0.57
-5 -1 12 3.85 0.48
5 -1 -12 3.36 0.54
-5 -1 12 3.5 0.46
5 -1 -12 3.59 0.38
-5 -1 12 3.81 0.5
5 1 -12 3.74 0.42
5 1 -12 3.38 0.39
5 1 -12 3.56 0.42
-5 1 12 3.15 0.48
5 1 -12 3.72 0.42
5 1 -12 4.16 0.39
5 1 -12 4.48 0.42
-5 1 12 3.53 0.49
5 1 -12 4.2 0.43
-5 1 12 3.6 0.49
5 1 -12 3.88 0.4
5 1 -12 4.09 0.42
4 -1 -12 244.06 13.86
4 -1 -12 208.27 13.43
4 -1 -12 237.36 18.99
-4 -1 12 244.11 16.96
4 -1 -12 240.62 14.14
4 -1 -12 249.75 12.76
-4 -1 12 248.28 16.98
4 -1 -12 233.9 17.16
-4 -1 12 234.63 17.9
4 -1 -12 192.03 12.93
4 -1 -12 226.57 19.32
4 -1 -12 221.23 13.66
-4 -1 12 250.79 16.86
4 -1 -12 232.58 13.01
-4 -1 12 224.02 16.84
-4 1 12 220.13 16.95
4 1 -12 225.94 13.05
4 1 -12 230.55 13.7
4 1 -12 231.11 14.58
-4 1 12 246.25 16.91
-4 1 12 229.57 17.19
4 1 -12 213.36 13.48
4 1 -12 242.07 12.79
4 1 -12 210.07 12.98
4 1 -12 207.16 15.01
4 1 -12 214.23 14.54
-4 1 12 231.29 16.88
4 1 -12 239.98 14.19
4 1 -12 199.4 13.02
4 1 -12 226.39 13.88
-3 -1 12 1.86 0.27
3 -1 -12 1.98 0.38
3 -1 -12 1.87 0.28
-3 -1 12 1.98 0.29
-3 -1 12 1.8 0.33
3 -1 -12 1.26 0.2
3 -1 -12 2.08 0.31
-3 -1 12 2.02 0.34
3 -1 -12 1.49 0.23
3 -1 -12 1.49 0.32
-3 -1 12 2.11 0.28
3 1 -12 1.59 0.25
-3 1 12 1.68 0.33
-3 1 12 1.53 0.31
3 1 -12 2.1 0.3
3 1 -12 1.95 0.29
-3 1 12 2.8 0.34
-3 1 12 1.74 0.3
3 1 -12 2.18 0.33
3 1 -12 1.52 0.24
3 1 -12 1.77 0.27
-3 1 12 2.42 0.43
3 1 -12 1.7 0.27
3 1 -12 2.14 0.33
3 1 -12 2.96 0.3
3 1 -12 1.95 0.29
3 1 -12 1.91 0.28
3 1 -12 2.01 0.28
-2 -1 12 158.41 10.94
2 -1 -12 161.9 10.97
2 -1 -12 160.97 12.33
-2 -1 12 166.53 11.02
2 -1 -12 141.6 10.25
-2 -1 12 159.56 11.65
-2 -1 12 159.08 9.96
2 -1 -12 168.48 11.18
-2 -1 12 147.57 10.92
-2 -1 12 163.92 11
-2 -1 12 168.15 11.04
-2 -1 12 157.08 10.97
-2 1 12 158.18 11.18
-2 1 12 157.16 10.98
-2 1 12 161.04 11.05
2 1 -12 132.32 9
-2 1 12 163.02 10.99
2 1 -12 134.97 8.46
2 1 -12 128.51 8.5
-2 1 12 145.46 11.03
2 1 -12 124.67 8.48
2 1 -12 142.85 8.3
2 1 -12 140.31 9.2
2 1 -12 141.7 8.49
2 1 -12 129.78 9.45
2 1 -12 126.57 8.79
2 1 -12 139.91 8.78
2 1 -12 126.94 8.49
2 1 -12 132.54 8.89
-1 -1 12 2.29 0.3
-1 -1 12 2.15 0.28
1 -1 -12 2.44 0.31
-1 -1 12 2.03 0.31
1 -1 -12 2.11 0.27
-1 -1 12 1.92 0.25
-1 -1 12 2.15 0.25
1 -1 -12 2.31 0.27
1 -1 -12 2.59 0.31
1 -1 -12 2.17 0.32
-1 -1 12 2.26 0.31
-1 -1 12 1.88 0.29
-1 -1 12 2.01 0.26
1 1 -12 1.76 0.26
-1 1 12 2.04 0.29
1 1 -12 2.24 0.33
1 1 -12 2.15 0.29
1 1 -12 1.94 0.28
1 1 -12 2.33 0.26
1 1 -12 2.52 0.26
1 1 -12 1.95 0.29
-1 1 12 2.4 0.3
1 1 -12 1.8 0.26
-1 1 12 2.05 0.29
-1 1 12 2.23 0.3
-1 1 12 1.79 0.28
1 1 -12 2.34 0.27
1 1 -12 2.26 0.29
1 1 -12 1.88 0.27
1 1 -12 1.86 0.25
0 -1 -12 0.39 0.14
0 -1 12 0.78 0.2
0 -1 12 0.54 0.15
0 -1 12 0.27 0.14
0 -1 12 0.31 0.18
0 -1 12 0.6 0.18
0 -1 -12 0.29 0.15
0 -1 -12 1.01 0.21
0 -1 12 0.6 0.17
0 -1 -12 0.92 0.2
0 -1 12 0.44 0.16
0 -1 -12 0.94 0.16
0 1 12 0.48 0.16
0 1 -12 0.32 0.14
0 1 12 0.5 0.17
0 1 -12 0.3 0.14
0 1 -12 0.41 0.17
0 1 -12 1.29 0.23
0 1 -12 0.35 0.17
0 1 12 0.26 0.13
0 1 -12 1.26 0.22
0 1 12 0.45 0.16
0 1 -12 0.77 0.17
0 1 12 0.53 0.16
1 -1 12 1.54 0.29
1 -1 12 1.13 0.26
1 -1 12 1.26 0.27
-1 -1 -12 0.9 0.19
1 -1 12 1.54 0.23
-1 -1 -12 1.29 0.23
1 -1 12 1.34 0.23
-1 -1 -12 1.62 0.3
-1 -1 -12 1.11 0.21
1 -1 12 1.48 0.28
-1 -1 -12 1.04 0.2
-1 -1 -12 1.18 0.22
1 1 12 1 0.23
-1 1 -12 1.06 0.2
1 1 12 1.13 0.24
-1 1 -12 0.99 0.22
-1 1 -12 0.91 0.21
-1 1 -12 1.27 0.23
1 1 12 1.4 0.25
1 1 12 1.51 0.27
-1 1 -12 1.26 0.24
-1 1 -12 1.28 0.21
-1 1 -12 1.05 0.2
-1 1 -12 1.04 0.21
-1 1 -12 1.19 0.21
-1 1 -12 0.9 0.19
-1 1 -12 0.66 0.19
1 1 12 1.03 0.24
-2 -1 -12 259.11 18.15
2 -1 12 268.95 19.67
-2 -1 -12 286.57 17.73
2 -1 12 275.27 21.3
2 -1 12 265.16 20.04
2 -1 12 260.87 20.98
2 -1 12 260.09 18.96
-2 -1 -12 278.16 18.73
2 -1 12 258.05 20.28
2 -1 12 286.1 18.9
-2 -1 -12 280.16 16.65
-2 -1 -12 270.01 18.88
-2 1 -12 228.59 15.21
-2 1 -12 266.6 15.21
-2 1 -12 260.23 14.32
2 1 12 253.84 20.06
-2 1 -12 230.34 16.62
-2 1 -12 227.82 14.65
2 1 12 228.42 18.22
-2 1 -12 225.34 15.5
-2 1 -12 261.27 14.68
2 1 12 228.3 16.14
-2 1 -12 238.74 15.29
-2 1 -12 226.21 15.64
-2 1 -12 241.63 14.65
2 1 12 287.11 19.01
2 1 12 290.11 19.03
2 1 12 248.31 18.87
3 -1 12 0.02 0.14
3 -1 12 0.16 0.16
3 -1 12 0.07 0.15
-3 -1 -12 0.16 0.16
3 -1 12 -0.05 0.12
-3 -1 -12 0.18 0.15
-3 -1 -12 0.03 0.11
-3 -1 -12 0.17 0.16
3 -1 12 -0.07 0.13
3 -1 12 0.25 0.17
3 -1 12 0.07 0.14
-3 -1 -12 0.13 0.16
3 1 12 0.2 0.17
-3 1 -12 0.61 0.18
3 1 12 0 0.13
-3 1 -12 0.1 0.13
3 1 12 0.11 0.15
-3 1 -12 0.13 0.16
-3 1 -12 0.12 0.14
-3 1 -12 0.06 0.16
3 1 12 0.2 0.16
-3 1 -12 -0.06 0.15
-3 1 -12 -0.1 0.14
3 1 12 -0.08 0.13
3 1 12 -0.07 0.14
3 1 12 -0.03 0.11
3 1 12 0.1 0.12
-3 1 -12 0.03 0.16
3 1 12 0.01 0.16
3 1 12 0.09 0.13
-3 1 -12 0.34 0.18
3 1 12 0 0.12
-3 1 -12 0.05 0.13
-3 1 -12 0 0.14
4 -1 12 147.68 11.38
4 -1 12 153.38 11.86
-4 -1 -12 150.21 11.28
4 -1 12 127.26 12.78
4 -1 12 134.23 12.63
-4 -1 -12 163.29 10.05
-4 -1 -12 140.39 11.04
-4 -1 -12 154.2 10.96
4 -1 12 133.86 12.19
-4 -1 -12 144.15 10.66
4 1 12 160.15 11.02
-4 1 -12 136.37 10.94
4 1 12 174.41 9.79
4 1 12 171.81 9.95
4 1 12 159.62 12.12
4 1 12 165.62 10.11
-4 1 -12 165.39 8.87
4 1 12 167.7 9.66
-4 1 -12 163.65 8.65
-4 1 -12 169.75 9.4
-4 1 -12 145.67 8.82
4 1 12 162.54 9.55
-4 1 -12 160.79 9.21
-4 1 -12 170.57 9.27
-4 1 -12 152.49 9.45
4 1 12 147.12 9.95
-4 1 -12 138.11 10.78
4 1 12 145.26 11.39
-5 1 -12 1.68 0.34
5 1 12 2.7 0.41
-5 1 -12 2.41 0.38
5 1 12 2.49 0.37
-5 1 -12 3.02 0.43
-5 1 -12 2.76 0.4
5 1 12 1.95 0.31
5 1 12 2.56 0.38
5 1 12 2.94 0.44
-5 1 -12 2.06 0.32
-5 1 -12 2.86 0.38
-5 1 -12 2.33 0.32
5 1 12 2.38 0.35
-6 -1 -12 0.86 0.19
6 -1 12 0.96 0.21
6 -1 12 0.81 0.18
-6 -1 -12 0.98 0.23
6 1 12 0.98 0.22
-6 1 -12 1.02 0.23
-6 1 -12 0.86 0.27
-6 1 -12 0.65 0.21
6 1 12 1.53 0.29
-6 1 -12 0.74 0.22
6 1 12 1.95 0.31
-6 1 -12 1.06 0.23
6 1 12 0.67 0.2
-6 1 -12 0.52 0.2
6 1 12 0.98 0.24
-7 -1 -12 1.97 0.25
-7 -1 -12 2.21 0.26
-7 -1 -12 2.32 0.27
-7 -1 -12 2 0.23
7 -1 12 1.87 0.28
7 -1 12 1.99 0.25
7 -1 12 2.17 0.25
7 -1 12 1.82 0.24
7 -1 12 2 0.26
-7 1 -12 1.95 0.27
7 1 12 2.14 0.26
7 1 12 2.19 0.29
-7 1 -12 3.16 0.3
-7 1 -12 2.73 0.3
7 1 12 2.09 0.27
-7 1 -12 2.9 0.29
-7 1 -12 2.29 0.3
7 1 12 2.2 0.27
7 -2 -12 1.49 0.22
7 -2 -12 1.36 0.19
7 -2 -12 1.08 0.16
7 -2 -12 1.15 0.17
7 2 -12 1.19 0.22
7 2 -12 1.08 0.21
-7 2 12 1.04 0.19
-7 2 12 1 0.2
7 2 -12 1.23 0.21
-7 2 12 1.35 0.23
-7 2 12 0.98 0.2
7 2 -12 1.09 0.21
7 2 -12 0.73 0.18
7 2 -12 0.62 0.17
6 -2 -12 59.87 3.53
6 -2 -12 56.8 3.47
6 -2 -12 50.71 3.28
6 -2 -12 57.94 3.24
6 -2 -12 56.68 3.6
6 2 -12 58.96 3.53
6 2 -12 56.51 3.74
6 2 -12 56.46 3.57
6 2 -12 48.56 3.81
6 2 -12 57.1 3.65
6 2 -12 51.98 3.71
-6 2 12 65.76 3.58
-6 2 12 62.08 3.36
6 2 -12 55.94 3.27
-6 2 12 62.38 3.59
-6 2 12 64.09 3.73
6 2 -12 50.71 3.31
-6 2 12 53.79 3.52
6 2 -12 52.51 3.77
5 -2 -12 0.95 0.24
5 -2 -12 0.84 0.21
5 -2 -12 1 0.22
5 -2 -12 0.92 0.2
5 -2 -12 0.93 0.2
5 2 -12 1.06 0.26
-5 2 12 1.04 0.26
5 2 -12 1.19 0.29
-5 2 12 0.9 0.28
5 2 -12 0.89 0.25
5 2 -12 0.7 0.22
-5 2 12 1.06 0.29
-5 2 12 0.9 0.26
5 2 -12 0.91 0.22
-5 2 12 0.89 0.27
-5 2 12 0.2 0.19
5 2 -12 0.57 0.22
5 2 -12 0.7 0.24
5 2 -12 0.93 0.25
5 2 -12 0.6 0.23
5 2 -12 1.65 0.28
5 2 -12 1.03 0.28
4 2 -12 51.59 3.52
4 2 -12 52.91 3.2
4 2 -12 52.4 3.15
4 2 -12 52.16 3.41
-4 2 12 56.79 3.22
4 2 -12 52.45 3.5
-4 2 12 57.48 3.38
-4 2 12 51.23 3.49
-4 2 12 56.79 3.56
-4 2 12 52.71 3.36
-4 2 12 55.32 3.39
4 2 -12 49.1 3.33
4 2 -12 50.64 3.28
4 2 -12 50.81 3.15
4 2 -12 54.72 3.15
4 2 -12 49.38 3.56
4 2 -12 56.42 3.34
4 2 -12 56.68 3.4
4 2 -12 49.53 3.49
4 2 -12 54.7 3.48
4 2 -12 49.94 3.15
4 2 -12 48.73 3.6
-3 -2 12 8.58 0.84
-3 -2 12 8.96 0.9
3 -2 -12 8.84 0.84
-3 -2 12 8.24 0.81
3 -2 -12 6.62 0.72
-3 -2 12 8.31 0.76
3 -2 -12 8.13 0.81
-3 -2 12 7.23 0.78
-3 -2 12 8.57 0.85
3 -2 -12 8.53 0.94
3 -2 -12 7.72 0.89
3 2 -12 8.52 0.71
-3 2 12 7.93 0.89
3 2 -12 8.34 0.64
-3 2 12 8.35 0.77
-3 2 12 9.34 0.8
3 2 -12 8.46 0.7
3 2 -12 8.98 0.68
-3 2 12 8.66 0.74
3 2 -12 9.44 0.73
3 2 -12 9.05 0.63
-3 2 12 8.31 0.75
3 2 -12 8.16 0.67
3 2 -12 9.02 0.67
-3 2 12 8.76 0.72
3 2 -12 9.49 0.75
3 2 -12 8.56 0.64
3 2 -12 8.82 0.7
-3 2 12 9.06 0.73
3 2 -12 9.09 0.73
3 2 -12 8.23 0.67
3 2 -12 8.88 0.71
3 2 -12 8.74 0.73
3 2 -12 7.89 0.73
3 2 -12 10.23 0.79
3 2 -12 9.27 0.71
3 2 -12 9.64 0.69
3 2 -12 9.48 0.75
3 2 -12 8.62 0.69
3 2 -12 8.91 0.73
-3 2 12 8.69 0.89
2 -2 -12 71.48 5.36
2 -2 -12 69.23 5.26
-2 -2 12 71.89 5.59
-2 -2 12 69.54 5.26
-2 -2 12 66 5.25
-2 -2 12 68.34 5.48
-2 -2 12 70.95 5.28
2 -2 -12 69.85 6.01
-2 -2 12 68.4 5.27
2 -2 -12 65.09 4.91
-2 -2 12 67.19 4.77
2 2 -12 73.38 4.65
2 2 -12 74.63 4.04
-2 2 12 61.68 5.1
2 2 -12 69.68 3.99
-2 2 12 66.84 4.56
2 2 -12 72.82 4.11
2 2 -12 67 4.12
2 2 -12 69.53 4.08
2 2 -12 72.05 4.37
2 2 -12 70.99 4.54
2 2 -12 73.66 4.29
2 2 -12 73.44 4.58
2 2 -12 70.86 4.98
-2 2 12 65.27 4.28
-2 2 12 65.1 4.5
2 2 -12 75.27 4.15
-2 2 12 68.7 5.32
2 2 -12 67.88 4.25
-2 2 12 57.15 5.29
2 2 -12 76.27 4.47
-2 2 12 68.01 5.3
-2 2 12 71.25 4.52
2 2 -12 77.37 4.37
2 2 -12 65.47 4.27
2 2 -12 68.37 4.34
-2 2 12 61.8 5.13
2 2 -12 69.2 4.14
2 2 -12 68.47 4.14
2 2 -12 68.37 4.31
2 2 -12 69.81 4.23
2 2 -12 73.4 4.56
-2 2 12 71.87 4.12
-2 2 12 69.42 4.38
2 2 -12 72.03 4.28
2 2 -12 73.78 4.7
1 -2 -12 0.19 0.19
-1 -2 12 0.67 0.22
1 -2 -12 0.35 0.17
1 -2 -12 0.18 0.16
-1 -2 12 0.3 0.16
-1 -2 12 1.02 0.27
1 -2 -12 0.09 0.13
-1 -2 12 0.73 0.23
1 -2 -12 0.28 0.17
-1 -2 12 0.78 0.26
1 -2 -12 0.29 0.17
-1 2 12 0.37 0.19
1 2 -12 0.84 0.25
1 2 -12 0.53 0.21
1 2 -12 0.71 0.21
-1 2 12 0.33 0.21
-1 2 12 0.42 0.2
-1 2 12 0.28 0.2
1 2 -12 0.44 0.21
1 2 -12 0.86 0.23
1 2 -12 0.5 0.19
1 2 -12 1.06 0.24
1 2 -12 0.73 0.21
1 2 -12 0.63 0.2
1 2 -12 0.67 0.21
1 2 -12 0.79 0.23
1 2 -12 0.6 0.2
1 2 -12 0.37 0.19
-1 2 12 0.26 0.19
-1 2 12 0.57 0.21
1 2 -12 0.62 0.21
-1 2 12 0.42 0.23
-1 2 12 0.48 0.23
1 2 -12 0.74 0.23
-1 2 12 0.24 0.18
1 2 -12 0.61 0.2
1 2 -12 0.61 0.22
1 2 -12 0.65 0.22
1 2 -12 0.54 0.22
1 2 -12 0.63 0.22
1 2 -12 0.64 0.2
1 2 -12 0.73 0.21
1 2 -12 0.87 0.25
-1 2 12 0.3 0.21
0 -2 -12 141.8 10.15
0 -2 12 134.87 11.02
0 -2 -12 147.27 9.63
0 -2 12 141.84 10.85
0 -2 -12 145.12 10.26
0 -2 -12 136.53 10.41
0 -2 12 140.66 10.24
0 -2 -12 127.28 9.82
0 -2 -12 130.08 9.01
0 -2 -12 123.89 9.91
0 -2 12 148.13 10.68
0 -2 12 142.78 11.41
0 2 12 135.9 9.96
0 2 -12 147.89 7.95
0 2 12 143.87 8.73
0 2 -12 143.83 7.99
0 2 12 128.61 9.95
0 2 -12 129.64 9.41
0 2 12 139.29 8.41
0 2 -12 143.78 8.03
0 2 -12 142.96 9.73
0 2 -12 134.77 8.69
0 2 -12 127.52 8.31
0 2 -12 130.2 8.72
0 2 12 122.84 10.3
0 2 -12 132.69 8.49
0 2 -12 148.48 8.44
0 2 12 142.32 8.8
0 2 -12 133.97 8.42
0 2 -12 143.44 8.32
0 2 12 119.92 9.07
0 2 -12 138.74 8.33
0 2 -12 144 8
0 2 12 138.24 10.34
0 2 12 128.43 7.88
0 2 -12 143.99 8.86
0 2 -12 143.15 7.76
0 2 -12 144.77 7.94
0 2 -12 145.98 8.22
0 2 -12 137.53 8.42
0 2 -12 144.01 7.82
0 2 12 131.45 10.09
0 2 -12 138.33 8.31
0 2 -12 141.84 8.02
0 2 -12 138.32 8.27
0 2 -12 144.08 8.61
1 -2 12 8.21 0.89
-1 -2 -12 8.21 0.72
-1 -2 -12 7.68 0.71
-1 -2 -12 7.73 0.75
1 -2 12 8.28 0.79
1 -2 12 7.85 0.84
-1 -2 -12 7.78 0.67
-1 -2 -12 8.53 0.77
1 -2 12 8.63 0.76
-1 -2 -12 6.75 0.7
1 -2 12 8.7 0.88
-1 2 -12 7.53 0.7
-1 2 -12 7.83 0.67
-1 2 -12 8.11 0.67
-1 2 -12 7.09 0.58
-1 2 -12 8.83 0.75
1 2 12 7.51 0.67
-1 2 -12 8.14 0.65
-1 2 -12 7.87 0.61
1 2 12 8.45 0.67
-1 2 -12 8.49 0.67
1 2 12 8.54 0.68
-1 2 -12 8.13 0.64
-1 2 -12 6.28 0.58
1 2 12 7.91 0.72
-1 2 -12 8.72 0.66
1 2 12 7.7 0.8
-1 2 -12 7.84 0.65
-1 2 -12 7.97 0.61
1 2 12 9.16 0.81
1 2 12 7.99 0.78
1 2 12 8.62 0.82
1 2 12 7.81 0.79
-1 2 -12 8.05 0.64
-1 2 -12 7.18 0.63
-1 2 -12 7.96 0.65
-1 2 -12 8.67 0.7
2 -2 12 91.27 8.67
2 -2 12 96.16 8.38
2 -2 12 100.71 7.86
-2 -2 -12 102.25 7.26
-2 -2 -12 103.25 7.49
-2 -2 -12 86.31 7.2
2 -2 12 105.36 8.14
2 -2 12 98.45 8.53
-2 -2 -12 98.79 7.07
-2 -2 -12 103.41 6.66
-2 -2 -12 88.92 7.3
2 -2 12 98.06 7.53
2 2 12 103.96 6.76
-2 2 -12 108.65 5.8
-2 2 -12 99.64 5.87
-2 2 -12 98.3 6.94
2 2 12 90.46 6.42
-2 2 -12 98.24 6.27
-2 2 -12 104.87 6.12
2 2 12 91.08 6.59
2 2 12 109.66 7.39
2 2 12 106.88 7.33
-2 2 -12 105.15 5.93
2 2 12 96.82 7.61
2 2 12 112.69 7.47
-2 2 -12 102.56 7.18
2 2 12 107.95 6.4
-2 2 -12 109.51 6.19
-2 2 -12 106.42 6.25
-2 2 -12 108.36 5.93
-2 2 -12 99.71 6.11
-3 -2 -12 0.67 0.25
-3 -2 -12 0.62 0.26
-3 -2 -12 0.96 0.29
-3 -2 -12 0.86 0.24
-3 -2 -12 0.56 0.25
3 -2 12 0.43 0.23
-3 -2 -12 0.51 0.22
3 -2 12 0.68 0.3
3 -2 12 1.1 0.32
-3 -2 -12 0.6 0.25
3 -2 12 1.6 0.38
3 -2 12 0.56 0.28
3 2 12 0.9 0.28
-3 2 -12 0.67 0.26
-3 2 -12 0.9 0.27
3 2 12 1.11 0.3
-3 2 -12 1.15 0.28
3 2 12 1.09 0.28
-3 2 -12 0.95 0.28
3 2 12 0.09 0.17
-3 2 -12 1.08 0.27
3 2 12 0.74 0.23
3 2 12 0.58 0.27
-3 2 -12 0.82 0.23
-3 2 -12 0.56 0.21
3 2 12 0.99 0.25
3 2 12 0.8 0.28
3 2 12 0.97 0.28
-3 2 -12 0.92 0.25
-3 2 -12 0.12 0.19
-3 2 -12 0.55 0.25
-4 2 -12 24.97 1.54
4 2 12 23.09 1.62
4 2 12 21.17 1.73
-4 2 -12 23.62 1.49
4 2 12 19.58 1.71
-4 2 -12 23.43 1.53
-4 2 -12 18.17 1.6
4 2 12 20.58 1.52
4 2 12 26.75 1.67
4 2 12 22.65 1.57
4 2 12 20.99 1.58
-4 2 -12 20.01 1.7
-4 2 -12 20.43 1.49
-4 2 -12 19.92 1.36
-4 2 -12 22.87 1.44
-5 2 -12 1.53 0.33
5 2 12 1.83 0.34
5 2 12 1.65 0.32
-5 2 -12 1.39 0.29
-5 2 -12 1.49 0.29
5 2 12 1.82 0.34
5 2 12 1.8 0.33
-5 2 -12 1.64 0.28
5 2 12 1.63 0.32
-5 2 -12 1.89 0.33
5 2 12 1.51 0.29
-5 2 -12 1.42 0.3
-6 -2 -12 60.93 4.37
6 2 12 67.43 4.81
-6 2 -12 72.47 4.44
6 2 12 80.2 4.72
6 2 12 64.91 4.76
-6 2 -12 74.51 4.56
6 2 12 77.3 4.78
6 2 12 76.31 4.59
-6 2 -12 78.25 4.53
6 2 12 75.19 4.63
-6 2 -12 71.3 5.2
-6 2 -12 79.29 4.45
7 -2 12 0.16 0.09
7 -2 12 0.03 0.09
-7 -2 -12 0.24 0.12
-7 2 -12 0.1 0.12
7 2 12 0.39 0.13
-7 2 -12 0.45 0.14
6 -3 -12 0.42 0.11
6 -3 -12 0.49 0.12
6 -3 -12 0.13 0.09
6 3 -12 0.46 0.15
6 3 -12 0.42 0.15
6 3 -12 0.25 0.13
6 3 -12 0.24 0.12
-6 3 12 0.36 0.15
-6 3 12 0 0.12
-6 3 12 0.27 0.13
5 -3 -12 1.2 0.22
5 -3 -12 1.69 0.24
5 -3 -12 1.33 0.19
5 -3 -12 1.39 0.23
5 -3 -12 1.46 0.25
5 3 -12 1.09 0.23
5 3 -12 1.36 0.25
5 3 -12 1.59 0.29
-5 3 12 1.58 0.27
-5 3 12 1.72 0.29
-5 3 12 1.9 0.34
5 3 -12 1.45 0.26
5 3 -12 1.17 0.26
5 3 -12 1.22 0.23
5 3 -12 1.01 0.21
5 3 -12 1.39 0.26
-5 3 12 1.29 0.25
5 3 -12 1.44 0.24
5 3 -12 1.26 0.26
5 3 -12 1.17 0.24
4 3 -12 23 1.68
4 3 -12 24.62 1.71
4 3 -12 22.93 1.66
-4 3 12 25.29 1.73
4 3 -12 22.6 1.64
-4 3 12 24.9 1.64
4 3 -12 24.35 1.63
4 3 -12 21.64 1.49
4 3 -12 23.26 1.54
-4 3 12 23.93 1.59
4 3 -12 22.55 1.5
4 3 -12 22.15 1.68
4 3 -12 24.56 1.69
4 3 -12 25.85 1.61
4 3 -12 23.82 1.58
-4 3 12 24.59 1.56
4 3 -12 24.23 1.52
-4 3 12 22.81 1.65
-3 3 12 0.4 0.21
3 3 -12 0.27 0.24
-3 3 12 0.59 0.27
3 3 -12 0.08 0.21
-3 3 12 -0.13 0.16
3 3 -12 0.42 0.21
3 3 -12 0.28 0.21
3 3 -12 0.32 0.21
3 3 -12 0.33 0.19
-3 3 12 0.48 0.26
3 3 -12 0.62 0.24
3 3 -12 0.27 0.24
3 3 -12 0.41 0.24
3 3 -12 0.71 0.28
3 3 -12 0.49 0.26
3 3 -12 0.38 0.24
3 3 -12 0.67 0.26
3 3 -12 0.48 0.25
3 3 -12 0.3 0.21
-3 3 12 0.27 0.21
-3 3 12 0.5 0.2
3 3 -12 0.23 0.2
-3 3 12 1.27 0.35
3 3 -12 0.35 0.22
2 3 -12 54.07 3.28
2 3 -12 52.9 3.34
2 3 -12 55.11 3.36
2 3 -12 59.49 3.6
-2 3 12 47.53 4.04
2 3 -12 57 3.44
-2 3 12 53.49 3.61
-2 3 12 50.08 3.66
2 3 -12 57.85 3.22
2 3 -12 56.38 3.42
2 3 -12 56.94 3.46
-2 3 12 58.65 3.32
-2 3 12 53.66 3.6
2 3 -12 54.29 3.63
2 3 -12 52.5 3.64
2 3 -12 50.24 3.42
2 3 -12 53.1 3.37
2 3 -12 55.9 3.75
2 3 -12 58.23 3.26
-2 3 12 51.8 3.52
2 3 -12 50.75 3.34
2 3 -12 53.99 3.47
2 3 -12 57.98 3.35
2 3 -12 54.43 3.3
2 3 -12 57.38 3.5
2 3 -12 56.26 3.47
-1 3 12 1.34 0.33
1 3 -12 1.22 0.33
-1 3 12 1.57 0.35
-1 3 12 1.45 0.32
1 3 -12 1.03 0.33
-1 3 12 1.1 0.27
-1 3 12 1.18 0.34
1 3 -12 1.27 0.29
1 3 -12 1.88 0.33
1 3 -12 1.34 0.3
1 3 -12 1.09 0.32
1 3 -12 1.6 0.31
1 3 -12 1.4 0.34
1 3 -12 0.93 0.29
1 3 -12 1.31 0.29
1 3 -12 2.27 0.35
1 3 -12 1.65 0.34
1 3 -12 1.65 0.33
1 3 -12 1.89 0.32
1 3 -12 1.11 0.31
-1 3 12 0.94 0.26
1 3 -12 1.7 0.34
-1 3 12 1.22 0.33
1 3 -12 1.61 0.33
1 3 -12 1.21 0.29
1 3 -12 1.58 0.32
1 3 -12 0.92 0.31
1 3 -12 1.3 0.3
0 3 -12 5.59 0.57
0 3 -12 5.18 0.5
0 3 -12 5.2 0.58
0 3 -12 5.57 0.54
0 3 -12 5.66 0.57
0 3 12 5.83 0.68
0 3 12 5.74 0.68
0 3 -12 5.79 0.57
0 3 -12 5.98 0.54
0 3 -12 5.38 0.55
0 3 -12 5.26 0.51
0 3 12 6.05 0.48
0 3 12 5.79 0.54
0 3 -12 5.36 0.59
0 3 -12 5.38 0.49
0 3 12 5.67 0.59
0 3 -12 4.9 0.6
0 3 -12 5.93 0.58
0 3 -12 6.19 0.55
0 3 -12 6.12 0.56
0 3 -12 5.89 0.57
0 3 -12 5.19 0.5
0 3 -12 4.87 0.61
0 3 12 6.27 0.6
0 3 12 4.68 0.61
0 3 -12 5.41 0.57
0 3 -12 5.44 0.53
1 3 12 19.07 1.72
1 3 12 19.43 1.7
-1 3 -12 20.3 1.37
-1 3 -12 21.69 1.39
-1 3 -12 20.57 1.41
-1 3 -12 21.19 1.45
-1 3 -12 21.78 1.44
1 3 12 22.41 1.48
-1 3 -12 17.66 1.4
1 3 12 17.69 1.52
-1 3 -12 20.35 1.41
-1 3 -12 19.8 1.43
1 3 12 20.06 1.37
-1 3 -12 21.03 1.39
-1 3 -12 20.87 1.45
-1 3 -12 19.59 1.34
1 3 12 21.47 1.71
-1 3 -12 20.03 1.63
-1 3 -12 19.38 1.55
-1 3 -12 21.28 1.41
-1 3 -12 20.95 1.33
1 3 12 22.55 1.49
-1 3 -12 21.21 1.45
-1 3 -12 19.71 1.35
-2 3 -12 15.64 1.05
2 3 12 13.57 1.01
-2 3 -12 13.9 1.03
-2 3 -12 13.15 1.17
2 3 12 13.21 1.07
-2 3 -12 14.17 1
2 3 12 13.83 1.15
2 3 12 15.67 1.23
2 3 12 15.68 1.28
-2 3 -12 14.69 1.08
-2 3 -12 14.87 1.09
-2 3 -12 13.34 1.03
-2 3 -12 12.79 1.11
-2 3 -12 15.15 1.06
-2 3 -12 12.13 0.98
-2 3 -12 13.37 1
-2 3 -12 14.36 1.01
2 3 12 14.09 1.26
2 3 12 13.64 1.03
3 3 12 3.49 0.42
-3 3 -12 2.02 0.35
-3 3 -12 2.29 0.4
3 3 12 3.33 0.46
-3 3 -12 3.18 0.37
3 3 12 3.43 0.45
-3 3 -12 3.62 0.46
-3 3 -12 3.22 0.41
-3 3 -12 3.42 0.48
3 3 12 3.41 0.48
-3 3 -12 3.67 0.49
-3 3 -12 3.66 0.42
3 3 12 3.43 0.42
3 3 12 3.94 0.46
-3 3 -12 3.38 0.46
-4 3 -12 80.01 4.74
4 3 12 75.03 5.56
4 3 12 79.41 5.54
-4 3 -12 69.95 5.23
4 3 12 67.54 4.87
-4 3 -12 76.89 4.65
4 3 12 81.08 5.09
4 3 12 76.95 5.01
-4 3 -12 77.71 4.64
4 3 12 83.78 4.88
-4 3 -12 72.95 4.43
-4 3 -12 70.45 5.41
-4 3 -12 75.97 4.75
5 3 12 0.41 0.17
5 3 12 0.62 0.18
-5 3 -12 0.85 0.2
5 3 12 0.56 0.17
-5 3 -12 0.8 0.21
5 3 12 0.66 0.17
-5 3 -12 0.75 0.21
5 3 12 0.6 0.19
-5 3 -12 0.57 0.2
-5 3 -12 0.32 0.21
-3 4 12 2.21 0.27
-3 4 12 1.77 0.24
-3 4 12 1.93 0.27
-2 4 12 6.56 0.49
-2 4 12 6.47 0.53
-2 4 12 6.4 0.54
-2 4 12 6.71 0.53
-2 4 12 4.92 0.56
-1 4 12 8.18 0.66
-1 4 12 8.12 0.66
-1 4 12 7.19 0.55
-1 4 12 8.44 0.72
-1 4 12 8.62 0.63
-1 4 12 6.6 0.68
0 4 -12 51.56 3.2
0 4 -12 52.94 3.17
0 4 12 45.27 3.73
0 4 12 55.4 3.8
0 4 12 54.08 3.34
0 4 -12 50.73 3.2
0 4 12 51.71 3.32
0 4 -12 50.47 3.12
0 4 12 46.87 3.81
0 4 12 51.53 3.16
-1 4 -12 6.42 0.55
-1 4 -12 6.95 0.54
1 4 12 7.56 0.58
-1 4 -12 7.37 0.55
1 4 12 6.68 0.66
-1 4 -12 6.7 0.53
1 4 12 6.38 0.58
-1 4 -12 7.28 0.59
-1 4 -12 6.44 0.56
-1 4 -12 5.58 0.59
-1 4 -12 6.49 0.59
1 4 12 8.74 0.69
1 4 12 6.6 0.66
1 4 12 6.7 0.55
2 4 12 8.34 0.68
-2 4 -12 8.36 0.64
-2 4 -12 8.53 0.67
2 4 12 9.28 0.76
-2 4 -12 9.07 0.63
2 4 12 10.22 0.76
-2 4 -12 8.84 0.62
-2 4 -12 7.79 0.6
-2 4 -12 6.67 0.67
-2 4 -12 6.95 0.59
2 4 12 7.47 0.6
2 4 12 9.17 0.76
-2 4 -12 8.25 0.63
-8 0 13 0.09 0.1
-8 0 13 0.05 0.11
-8 0 13 0.13 0.11
-8 0 13 0.15 0.11
8 0 -13 0.02 0.1
8 0 -13 0.21 0.11
8 0 -13 0.13 0.1
8 0 -13 0.08 0.09
7 0 -13 54.76 3.13
7 0 -13 52.97 3.09
7 0 -13 49.7 3.27
7 0 -13 44.79 3.23
7 0 -13 44.92 2.84
7 0 -13 51.12 3.18
6 0 -13 0.16 0.12
6 0 -13 0.21 0.14
6 0 -13 0.12 0.16
6 0 -13 0.05 0.15
6 0 -13 0.13 0.13
6 0 -13 0.15 0.13
6 0 -13 0.33 0.16
-5 0 13 5.67 0.73
5 0 -13 7.73 0.62
5 0 -13 6.86 0.82
-5 0 13 7.64 0.74
5 0 -13 7.66 0.58
5 0 -13 7.82 0.59
-5 0 13 6.4 0.71
5 0 -13 7.8 0.6
-5 0 13 6.41 0.71
5 0 -13 8.59 0.63
-5 0 13 7.74 0.75
-5 0 13 7.84 0.75
-5 0 13 7.51 0.73
5 0 -13 8.02 0.56
5 0 -13 7.97 0.57
-4 0 13 0.17 0.13
4 0 -13 0.07 0.13
4 0 -13 0.04 0.11
4 0 -13 0.12 0.12
-4 0 13 0.25 0.18
4 0 -13 -0.02 0.12
4 0 -13 0.15 0.12
4 0 -13 -0.01 0.15
4 0 -13 0.05 0.13
-4 0 13 -0.02 0.13
4 0 -13 -0.03 0.14
-4 0 13 0.23 0.14
4 0 -13 0.06 0.12
-4 0 13 0.04 0.11
4 0 -13 -0.09 0.1
4 0 -13 0.01 0.12
-4 0 13 0.24 0.17
-4 0 13 0.29 0.17
-3 0 13 223.5 16.64
-3 0 13 244.99 16.96
-3 0 13 226.38 17.67
-3 0 13 215.7 15.1
3 0 -13 224.51 12.59
-3 0 13 252.44 16.68
-3 0 13 243.13 16.67
3 0 -13 196.63 13.5
3 0 -13 209.87 13.68
-3 0 13 236.34 16.76
3 0 -13 245.88 19.11
3 0 -13 206.41 12.82
-3 0 13 227.96 16.68
3 0 -13 227.12 12.87
-3 0 13 238.36 16.77
3 0 -13 218.94 13.3
3 0 -13 196.75 12.87
3 0 -13 228.72 13.97
3 0 -13 235.06 16.96
2 0 -13 0 0.07
-2 0 13 0.04 0.11
2 0 -13 -0.09 0.12
-2 0 13 0.05 0.1
2 0 -13 0.09 0.1
-2 0 13 -0.02 0.09
2 0 -13 -0.05 0.08
2 0 -13 0.09 0.1
-2 0 13 0.07 0.11
-2 0 13 -0.05 0.09
-2 0 13 0.08 0.11
-2 0 13 0.06 0.11
-2 0 13 0.01 0.12
2 0 -13 -0.03 0.11
2 0 -13 0.04 0.1
2 0 -13 0.05 0.1
-2 0 13 0.04 0.09
2 0 -13 -0.06 0.08
2 0 -13 0 0.11
2 0 -13 0 0.11
2 0 -13 0.17 0.1
1 0 -13 218.28 14.34
-1 0 13 280.63 17.98
-1 0 13 254.04 17.96
1 0 -13 211.37 13.94
-1 0 13 238.36 17.96
-1 0 13 251.88 18.7
1 0 -13 223.46 13.87
-1 0 13 237.47 16.31
-1 0 13 255.81 19.09
1 0 -13 280.07 18.33
1 0 -13 223.13 13.84
-1 0 13 273.76 18.09
-1 0 13 250.13 18
1 0 -13 265.13 18
1 0 -13 234.2 16.84
1 0 -13 217.17 13.9
0 0 13 -0.03 0.1
0 0 13 -0.02 0.1
0 0 -13 0.04 0.11
0 0 -13 -0.02 0.1
0 0 -13 -0.08 0.06
0 0 13 0.2 0.11
0 0 13 0.01 0.09
0 0 -13 -0.02 0.1
0 0 13 -0.05 0.09
0 0 -13 -0.03 0.1
0 0 -13 -0.02 0.1
0 0 -13 -0.01 0.1
0 0 13 0.02 0.09
0 0 -13 -0.08 0.09
0 0 -13 -0.01 0.1
0 0 -13 -0.08 0.09
0 0 -13 -0.06 0.1
0 0 13 0.02 0.09
-1 0 -13 15.51 1.11
-1 0 -13 10.84 0.82
1 0 13 14.39 1.16
-1 0 -13 11.31 0.85
-1 0 -13 13.96 0.93
-1 0 -13 11.07 0.82
-1 0 -13 11.73 0.83
1 0 13 13.29 1.19
1 0 13 13.15 1.08
1 0 13 14.29 1.12
-1 0 -13 14.58 1.08
-1 0 -13 11.81 0.81
1 0 13 12.88 1.15
-1 0 -13 14.67 1.03
-1 0 -13 11.38 0.82
1 0 13 14.21 1.07
1 0 13 13.84 1.05
-1 0 -13 11.4 0.81
2 0 13 0.16 0.11
-2 0 -13 -0.11 0.09
2 0 13 0.18 0.12
-2 0 -13 0.02 0.13
-2 0 -13 -0.06 0.12
2 0 13 0.18 0.15
-2 0 -13 0.08 0.11
2 0 13 0.1 0.1
2 0 13 0.24 0.15
-2 0 -13 0.15 0.11
-2 0 -13 0.1 0.12
-2 0 -13 -0.01 0.09
-2 0 -13 0.08 0.12
2 0 13 0.6 0.2
-2 0 -13 0.03 0.11
2 0 13 0.15 0.11
-2 0 -13 0 0.09
-2 0 -13 -0.01 0.11
-2 0 -13 0.05 0.14
-3 0 -13 191.73 11.75
-3 0 -13 172.54 11.33
-3 0 -13 196.74 11.08
-3 0 -13 206.11 11.36
3 0 13 198.92 15.55
3 0 13 219.8 14.74
-3 0 -13 218.23 13.77
-3 0 -13 213.74 11.36
-3 0 -13 188.97 12.01
-3 0 -13 212.86 12.91
-3 0 -13 174.78 11.77
-3 0 -13 190.56 14.06
-3 0 -13 226.27 14.55
-3 0 -13 196.84 11.85
3 0 13 199.28 15.23
3 0 13 174.59 16.21
3 0 13 193.46 14.64
-4 0 -13 0.25 0.16
-4 0 -13 0.04 0.15
4 0 13 0.1 0.17
-4 0 -13 0.07 0.14
-4 0 -13 0 0.19
-4 0 -13 0.08 0.14
-4 0 -13 0.13 0.17
-4 0 -13 0.09 0.12
-4 0 -13 0.08 0.13
-4 0 -13 -0.01 0.16
4 0 13 -0.05 0.14
4 0 13 0.07 0.17
-4 0 -13 0.16 0.13
4 0 13 0.05 0.18
-4 0 -13 0.18 0.15
-5 0 -13 102.28 5.55
5 0 13 93.45 6.18
-5 0 -13 97.88 5.91
5 0 13 99.32 6.4
5 0 13 87.86 6.46
-5 0 -13 106.97 5.71
-5 0 -13 88.07 5.65
-5 0 -13 110.91 5.98
-5 0 -13 106.23 6.05
5 0 13 87.78 6.45
-6 0 -13 0.24 0.14
-6 0 -13 0.2 0.16
6 0 13 0.08 0.13
6 0 13 0.15 0.12
6 0 13 0.17 0.15
-6 0 -13 0.61 0.18
6 0 13 0.14 0.12
-6 0 -13 0.3 0.16
6 0 13 0.26 0.14
-6 0 -13 0.09 0.15
-6 0 -13 0.2 0.16
6 0 13 0.06 0.12
7 0 13 0.37 0.14
7 0 13 0.39 0.15
7 0 13 1.22 0.21
-7 0 -13 0.55 0.17
-7 0 -13 0.42 0.18
-7 0 -13 0.63 0.16
-7 0 -13 0.5 0.17
7 0 13 0.72 0.16
7 0 13 0.57 0.17
-7 0 -13 0.58 0.18
8 -1 -13 0.69 0.13
8 -1 -13 0.52 0.12
8 1 -13 0.45 0.13
-8 1 13 0.61 0.14
-8 1 13 0.69 0.17
8 1 -13 0.42 0.13
7 -1 -13 49.02 3.12
7 -1 -13 50.01 3.02
7 -1 -13 46.6 2.79
7 -1 -13 52.05 3.07
7 -1 -13 44.65 3.19
-7 1 13 51.71 3.06
-7 1 13 51.62 3.19
-7 1 13 47.68 2.86
7 1 -13 47.81 3.13
7 1 -13 43.23 2.8
7 1 -13 52.58 3.05
7 1 -13 50.81 3.24
7 1 -13 52.18 3.09
-7 1 13 50.59 3.08
-7 1 13 47.28 3.16
7 1 -13 46.76 3.2
6 -1 -13 0.41 0.16
6 -1 -13 0.2 0.15
6 -1 -13 0.54 0.17
6 -1 -13 0.39 0.15
6 -1 -13 0.45 0.17
6 -1 -13 0.58 0.18
-6 1 13 0.38 0.17
6 1 -13 0.19 0.17
6 1 -13 0.66 0.18
6 1 -13 0.51 0.2
-6 1 13 0.58 0.21
6 1 -13 0.19 0.16
6 1 -13 0.15 0.17
6 1 -13 0.23 0.17
6 1 -13 0.38 0.18
-6 1 13 0.62 0.23
-6 1 13 0.35 0.17
5 -1 -13 40.4 2.64
5 -1 -13 38.03 2.84
5 -1 -13 45.64 2.54
5 -1 -13 44.96 2.58
5 -1 -13 49.49 2.83
5 -1 -13 46.05 2.71
5 -1 -13 46.97 2.76
5 1 -13 35.66 2.96
-5 1 13 40.78 2.84
5 1 -13 44.26 2.56
5 1 -13 44.11 2.78
5 1 -13 44.5 2.62
5 1 -13 45.33 2.91
5 1 -13 44.53 2.85
5 1 -13 41.97 2.89
5 1 -13 41.04 2.68
5 1 -13 43.31 2.73
4 -1 -13 4.96 0.44
4 -1 -13 6 0.7
4 -1 -13 6.54 0.53
-4 -1 13 6.14 0.67
4 -1 -13 5.21 0.7
4 -1 -13 5.52 0.46
4 -1 -13 5.62 0.62
4 -1 -13 6 0.48
4 -1 -13 6.25 0.5
-4 -1 13 6.02 0.61
-4 -1 13 5.66 0.6
-4 -1 13 6.02 0.62
4 -1 -13 5.47 0.47
4 -1 -13 5.98 0.47
-4 -1 13 5.8 0.64
-4 1 13 6.07 0.65
4 1 -13 6 0.52
4 1 -13 5.93 0.52
4 1 -13 5.97 0.5
-4 1 13 6.36 0.65
4 1 -13 6.7 0.56
-4 1 13 5.56 0.63
4 1 -13 6.57 0.55
4 1 -13 5.92 0.51
4 1 -13 5.73 0.53
4 1 -13 6.34 0.51
4 1 -13 5.44 0.52
-4 1 13 5.79 0.64
4 1 -13 5.87 0.49
3 -1 -13 30.62 2.08
3 -1 -13 33.54 2.14
-3 -1 13 36.29 2.75
-3 -1 13 35.85 2.6
3 -1 -13 30.7 1.95
-3 -1 13 34.24 2.58
3 -1 -13 36.18 2.97
3 -1 -13 36.11 2.9
3 -1 -13 36.36 2.63
-3 -1 13 33.97 2.56
3 -1 -13 27.04 1.94
-3 -1 13 32.57 2.53
3 -1 -13 33.63 2.55
-3 -1 13 35.92 2.61
-3 1 13 31.05 2.57
3 1 -13 30.28 2.2
3 1 -13 34.36 1.97
3 1 -13 31.47 2.11
3 1 -13 34.12 2.02
-3 1 13 33.79 2.6
-3 1 13 36.47 2.64
3 1 -13 27.76 1.98
3 1 -13 29.93 1.99
3 1 -13 28.9 2.04
-3 1 13 32.46 2.6
3 1 -13 32.7 2
3 1 -13 32.33 2.09
3 1 -13 31.92 2.08
3 1 -13 35.07 2.18
3 1 -13 31.81 2.19
-3 1 13 33.14 2.59
-2 -1 13 16.75 1.3
-2 -1 13 16.6 1.28
2 -1 -13 16.63 1.32
2 -1 -13 16.3 1.28
2 -1 -13 15.7 1.18
-2 -1 13 15.56 1.23
-2 -1 13 16.51 1.26
-2 -1 13 16.2 1.29
-2 -1 13 15.93 1.17
-2 -1 13 15.06 1.29
-2 -1 13 16.08 1.36
2 -1 -13 17.71 1.48
-2 1 13 16.87 1.3
-2 1 13 15.37 1.3
2 1 -13 12.99 0.95
2 1 -13 16.47 1.02
2 1 -13 13.43 0.98
-2 1 13 16.34 1.31
2 1 -13 15.59 1.08
2 1 -13 13.97 1.08
2 1 -13 14.48 1.01
2 1 -13 13.56 1.02
2 1 -13 15.06 0.98
2 1 -13 14.27 1.03
2 1 -13 14.21 1.04
2 1 -13 14.47 1.01
-2 1 13 14.05 1.28
2 1 -13 14.18 1.01
-2 1 13 16.35 1.3
2 1 -13 15.14 1.06
1 -1 -13 142.98 9.11
-1 -1 13 125.82 9.65
-1 -1 13 138.28 9.71
1 -1 -13 146.06 11.12
-1 -1 13 143.86 10.13
-1 -1 13 140.18 9.73
-1 -1 13 135.4 8.82
-1 -1 13 136.51 9.73
-1 -1 13 140.49 10.31
-1 -1 13 147.6 9.77
1 -1 -13 127.68 9.58
-1 1 13 139.68 9.78
1 1 -13 132.75 7.78
-1 1 13 139.84 9.78
1 1 -13 116.12 7.54
1 1 -13 116.76 7.52
1 1 -13 119.46 7.8
-1 1 13 116.86 10.27
-1 1 13 151.05 9.73
1 1 -13 120.59 7.95
-1 1 13 147.64 9.73
1 1 -13 127.69 7.5
1 1 -13 116.99 8.12
1 1 -13 112.07 7.83
1 1 -13 112.05 7.33
1 1 -13 128.53 7.51
1 1 -13 123.89 7.53
1 1 -13 122.23 7.33
0 -1 13 20.75 1.66
0 -1 13 17.16 1.45
0 -1 13 20.25 1.33
0 -1 13 19.78 1.55
0 -1 -13 19.43 1.48
0 -1 -13 16.74 1.25
0 -1 -13 20.2 1.47
0 -1 13 19.89 1.53
0 -1 -13 18.61 1.44
0 -1 13 17.8 1.43
0 -1 13 18.85 1.46
0 -1 -13 19.59 1.38
0 -1 13 19.82 1.47
0 1 -13 15.12 1.18
0 1 13 19.49 1.47
0 1 13 18.99 1.55
0 1 13 18.84 1.48
0 1 -13 14.99 1.11
0 1 -13 17.68 1.16
0 1 -13 17.48 1.11
0 1 -13 15.4 1.16
0 1 13 19.88 1.48
0 1 -13 14.84 1.16
0 1 -13 16.94 1.14
0 1 -13 16.68 1.14
0 1 -13 16.27 1.18
0 1 -13 15.97 1.12
0 1 -13 17.68 1.15
-1 -1 -13 228.16 14.18
1 -1 13 215.16 15.09
-1 -1 -13 222.51 14.96
-1 -1 -13 199.37 13.27
-1 -1 -13 190.78 15.34
-1 -1 -13 226.28 15.11
1 -1 13 195.42 15.7
1 -1 13 221.74 16.02
1 -1 13 216.78 16.23
1 -1 13 208.54 15.16
1 1 13 212.19 16.04
1 1 13 207.38 15.2
1 1 13 229.64 15.2
-1 1 -13 181.73 11.61
1 1 13 203.75 15.08
-1 1 -13 181.94 12.38
-1 1 -13 192.58 11.69
-1 1 -13 184.13 11.43
-1 1 -13 198.46 11.73
-1 1 -13 185.04 12.21
-1 1 -13 198.12 11.74
1 1 13 222.75 15.09
-1 1 -13 203.43 12.16
-1 1 -13 189.92 11.7
2 -1 13 2.3 0.39
-2 -1 -13 1.98 0.31
2 -1 13 2.18 0.33
2 -1 13 1.5 0.31
2 -1 13 2.08 0.32
-2 -1 -13 2.22 0.29
2 -1 13 1.73 0.33
-2 -1 -13 2.01 0.29
2 -1 13 2.13 0.35
2 -1 13 2 0.36
-2 -1 -13 2.84 0.41
-2 -1 -13 2.25 0.32
-2 1 -13 2.43 0.32
2 1 13 2.15 0.36
-2 1 -13 1.97 0.3
2 1 13 2.32 0.32
-2 1 -13 1.85 0.28
-2 1 -13 1.67 0.29
-2 1 -13 1.89 0.27
2 1 13 2.66 0.43
-2 1 -13 2 0.28
-2 1 -13 2.34 0.32
2 1 13 1.93 0.3
-2 1 -13 2.21 0.33
2 1 13 1.72 0.32
2 1 13 2.13 0.31
-2 1 -13 2.21 0.31
-2 1 -13 1.68 0.28
-3 -1 -13 36.43 2.67
-3 -1 -13 38.5 2.85
3 -1 13 31.56 3.26
3 -1 13 36.04 3.02
3 -1 13 33.07 3.16
3 -1 13 33.75 3.06
-3 -1 -13 36.95 2.76
3 -1 13 37.4 2.99
3 -1 13 39.22 2.88
-3 -1 -13 40.02 2.54
3 1 13 37.88 2.54
3 1 13 42.06 2.51
3 1 13 34.57 2.77
-3 1 -13 37.47 2.34
-3 1 -13 35.16 2.37
3 1 13 38.16 3.06
-3 1 -13 37.32 2.31
3 1 13 36.18 2.56
3 1 13 40.86 2.92
3 1 13 35.21 2.79
-3 1 -13 36.03 2.36
-3 1 -13 40.14 2.21
-3 1 -13 34.57 2.53
3 1 13 36.09 2.4
-3 1 -13 34.51 2.31
3 1 13 35.01 2.86
3 1 13 41.06 2.48
-3 1 -13 38.79 2.25
-3 1 -13 38.17 2.25
-4 -1 -13 6.87 0.6
4 -1 13 5.91 0.7
-4 -1 -13 6.05 0.6
-4 -1 -13 5.72 0.64
4 -1 13 5.58 0.71
-4 -1 -13 5.26 0.63
4 -1 13 4.82 0.69
-4 -1 -13 5.88 0.64
4 -1 13 6.4 0.74
4 -1 13 5.87 0.65
4 -1 13 6.02 0.68
4 1 13 7.56 0.6
4 1 13 6.44 0.71
4 1 13 6.85 0.63
4 1 13 4.73 0.69
4 1 13 8.23 0.61
-4 1 -13 5.59 0.62
-4 1 -13 6.31 0.57
4 1 13 7.68 0.63
-4 1 -13 6.78 0.56
4 1 13 8.2 0.64
-4 1 -13 6.98 0.55
-4 1 -13 6.39 0.52
4 1 13 6.32 0.68
4 1 13 7.49 0.61
-4 1 -13 5.91 0.55
-4 1 -13 7.24 0.57
-4 1 -13 6.66 0.52
-5 -1 -13 36.12 2.58
5 1 13 43.66 2.76
-5 1 -13 43.4 2.65
-5 1 -13 39.58 2.63
5 1 13 44.63 2.74
5 1 13 44.89 2.81
-5 1 -13 37.24 2.68
5 1 13 41.88 2.87
5 1 13 39.6 2.82
-5 1 -13 43.33 2.53
-5 1 -13 45.76 2.71
-5 1 -13 40.09 2.44
5 1 13 44.23 2.85
-6 -1 -13 1.36 0.24
6 -1 13 1.15 0.21
-6 -1 -13 1.26 0.23
-6 -1 -13 0.94 0.22
-6 -1 -13 0.96 0.2
-6 -1 -13 1.28 0.25
6 1 13 1 0.23
6 1 13 1.77 0.31
6 1 13 1.31 0.26
-6 1 -13 1.04 0.24
-6 1 -13 1.07 0.22
-6 1 -13 1.41 0.29
-6 1 -13 1.22 0.28
6 1 13 1.09 0.23
-6 1 -13 0.92 0.22
6 1 13 1.26 0.27
7 -1 13 73.68 4.88
7 -1 13 68.88 4.7
-7 -1 -13 76.92 4.48
-7 -1 -13 70.85 4.27
7 -1 13 78.46 4.62
-7 -1 -13 72.55 4.54
7 -1 13 79.24 4.83
-7 -1 -13 67.71 4.44
7 1 13 69.81 4.81
7 1 13 76.93 4.62
-7 1 -13 76.65 4.55
7 1 13 77.45 4.73
-7 1 -13 72.62 4.58
-7 1 -13 72.32 4.47
7 1 13 76.17 4.79
-7 1 -13 75.2 4.47
7 -2 -13 1.88 0.2
7 -2 -13 1.71 0.19
7 -2 -13 2.22 0.2
7 -2 -13 1.5 0.21
-7 2 13 1.64 0.24
-7 2 13 1.56 0.21
-7 2 13 1.81 0.23
7 2 -13 1.41 0.23
7 2 -13 1.33 0.21
-7 2 13 2.27 0.29
7 2 -13 1.29 0.21
7 2 -13 1.49 0.22
7 2 -13 1.35 0.21
6 -2 -13 1.13 0.21
6 -2 -13 1.3 0.23
6 -2 -13 1.27 0.19
6 -2 -13 0.89 0.18
6 -2 -13 1.39 0.22
-6 2 13 1.26 0.26
6 2 -13 1.12 0.23
6 2 -13 1.32 0.25
-6 2 13 1.56 0.27
6 2 -13 1.02 0.22
6 2 -13 1.15 0.25
-6 2 13 1.19 0.24
6 2 -13 0.93 0.24
6 2 -13 1.42 0.27
6 2 -13 0.89 0.22
-6 2 13 0.95 0.23
-6 2 13 1.86 0.29
6 2 -13 1.04 0.22
5 -2 -13 12.59 0.86
5 -2 -13 11.64 0.88
5 -2 -13 13.49 0.95
5 -2 -13 10.54 0.85
5 -2 -13 13.69 0.86
5 -2 -13 13.44 0.92
-5 2 13 12.43 0.95
5 2 -13 12.76 1
5 2 -13 13.23 1
5 2 -13 13.78 1
-5 2 13 12.47 0.97
-5 2 13 13.91 0.98
5 2 -13 12.82 0.93
5 2 -13 13.81 0.98
5 2 -13 12.43 0.97
5 2 -13 13.66 0.92
5 2 -13 13.44 0.96
-5 2 13 15.92 1.07
-5 2 13 14.01 0.94
5 2 -13 11.29 0.96
-5 2 13 12.33 0.96
5 2 -13 11.62 0.9
4 -2 -13 13.25 1.01
4 2 -13 14 1.1
4 2 -13 16.08 1.11
-4 2 13 14.47 1.08
4 2 -13 15.04 1.05
-4 2 13 17 1.14
-4 2 13 16.94 1.16
-4 2 13 15.63 1.2
4 2 -13 14.5 1.02
4 2 -13 16.07 1.13
4 2 -13 14.22 1.09
4 2 -13 15.17 1.04
4 2 -13 14.09 1.15
-4 2 13 15.43 1.17
4 2 -13 15.17 1.14
4 2 -13 14.31 1.13
-4 2 13 16.53 1.1
4 2 -13 15.86 1.15
4 2 -13 15.5 1.16
4 2 -13 15.56 1.06
4 2 -13 15.17 1.08
-3 -2 13 81.62 7.07
-3 -2 13 91.89 7.08
-3 -2 13 91.38 7.51
3 -2 -13 81.03 7.91
-3 -2 13 89.55 7.37
-3 -2 13 89.74 6.42
3 -2 -13 91.44 8.1
3 -2 -13 87.91 7.06
3 -2 -13 95.59 7.21
-3 -2 13 86.44 7.09
-3 -2 13 90.41 7.11
3 2 -13 92.47 5.51
-3 2 13 93.18 6.03
3 2 -13 94.12 6.14
3 2 -13 93.63 5.86
3 2 -13 98.56 6.31
3 2 -13 97.18 5.54
3 2 -13 91.56 5.47
-3 2 13 99.91 6.1
-3 2 13 93.32 6.12
3 2 -13 104.41 5.44
3 2 -13 101.07 6.14
3 2 -13 86.67 5.34
3 2 -13 96.52 5.71
-3 2 13 100.78 5.8
3 2 -13 101.32 5.78
3 2 -13 91.41 5.48
3 2 -13 104.74 6.01
3 2 -13 102.11 5.54
3 2 -13 94.29 6.24
-3 2 13 92.41 7.13
-3 2 13 98.98 5.89
-3 2 13 88.37 7.13
-3 2 13 84.22 6.82
-3 2 13 102.62 5.55
3 2 -13 104.08 5.87
3 2 -13 97.72 5.56
3 2 -13 98.17 6.11
3 2 -13 97 5.74
2 -2 -13 8.04 0.78
-2 -2 13 7.44 0.75
-2 -2 13 7.42 0.78
2 -2 -13 8.07 0.77
2 -2 -13 6.71 0.69
2 -2 -13 6.53 0.7
-2 -2 13 7.68 0.74
-2 -2 13 7.4 0.8
-2 -2 13 7.67 0.81
-2 -2 13 7.27 0.69
2 -2 -13 7.93 0.86
-2 -2 13 7.66 0.78
2 2 -13 8.12 0.68
-2 2 13 6.87 0.77
2 2 -13 7.84 0.72
2 2 -13 8.17 0.68
2 2 -13 8.13 0.63
2 2 -13 8.71 0.7
2 2 -13 9.19 0.73
-2 2 13 8.08 0.66
2 2 -13 8.85 0.67
2 2 -13 7.23 0.61
2 2 -13 8.69 0.68
-2 2 13 7.61 0.81
-2 2 13 7.46 0.71
-2 2 13 6.27 0.74
2 2 -13 7.57 0.63
2 2 -13 8.47 0.67
2 2 -13 8.44 0.64
2 2 -13 8.06 0.67
2 2 -13 7.35 0.65
-2 2 13 7.09 0.81
-2 2 13 7.35 0.78
-2 2 13 7.67 0.74
2 2 -13 7.95 0.63
2 2 -13 8.47 0.68
-2 2 13 7.7 0.7
2 2 -13 8.04 0.63
2 2 -13 7.6 0.61
2 2 -13 8.01 0.61
-2 2 13 7.84 0.69
2 2 -13 8.61 0.7
2 2 -13 7.76 0.65
2 2 -13 7.59 0.66
2 2 -13 8.26 0.6
-1 -2 13 81.83 6.66
1 -2 -13 66.42 6.78
1 -2 -13 79.11 6.07
-1 -2 13 77.14 5.98
-1 -2 13 79.08 5.97
1 -2 -13 68.42 5.21
-1 -2 13 80.43 5.42
-1 -2 13 72.4 5.96
1 -2 -13 80.12 5.6
-1 -2 13 79.18 6.23
1 -2 -13 86.2 5.99
-1 -2 13 80.37 6.33
1 -2 -13 73.8 5.88
1 2 -13 87.36 4.7
-1 2 13 81.45 4.62
1 2 -13 70.79 4.79
1 2 -13 81.06 5.14
-1 2 13 80.43 4.94
1 2 -13 81.48 4.85
1 2 -13 84.02 4.92
1 2 -13 83.37 4.88
1 2 -13 77.73 4.9
1 2 -13 84.33 4.56
1 2 -13 82.7 5.66
1 2 -13 81.41 4.71
1 2 -13 82.77 4.95
1 2 -13 79.04 4.65
1 2 -13 74.94 5.46
-1 2 13 70.92 5.78
-1 2 13 82.96 5.19
1 2 -13 84.88 4.66
1 2 -13 82.08 5.16
1 2 -13 89.82 4.56
-1 2 13 71.67 5.89
1 2 -13 88.57 4.85
1 2 -13 73.94 5.06
-1 2 13 71.78 5.82
1 2 -13 76.12 4.84
1 2 -13 80.68 5.31
1 2 -13 88.99 5.05
-1 2 13 77.41 5.13
-1 2 13 76.11 6
1 2 -13 86.33 4.69
-1 2 13 71.38 6.03
1 2 -13 83.05 4.71
0 -2 -13 7.09 0.66
0 -2 -13 5.52 0.62
0 -2 13 6.53 0.73
0 -2 -13 6.03 0.63
0 -2 13 6.6 0.69
0 -2 13 5.97 0.74
0 -2 -13 7.01 0.62
0 -2 13 6.56 0.65
0 -2 -13 6.21 0.56
0 -2 13 5.78 0.64
0 -2 -13 5.15 0.57
0 2 13 6.36 0.6
0 2 13 5.81 0.67
0 2 -13 5.64 0.5
0 2 -13 5.82 0.53
0 2 -13 5.32 0.52
0 2 -13 6.59 0.63
0 2 -13 6.71 0.62
0 2 -13 6.26 0.56
0 2 13 6.04 0.69
0 2 -13 6.42 0.58
0 2 -13 6.54 0.53
0 2 13 5.9 0.6
0 2 -13 6.39 0.55
0 2 -13 6.5 0.59
0 2 -13 6.86 0.56
0 2 13 6.59 0.7
0 2 -13 6.72 0.55
0 2 -13 6.12 0.55
0 2 -13 5.39 0.54
0 2 -13 7.16 0.57
0 2 -13 7.43 0.61
0 2 -13 6.83 0.51
0 2 13 6.75 0.55
0 2 13 6.99 0.6
0 2 13 6.63 0.69
0 2 13 6.65 0.72
0 2 -13 6.96 0.53
0 2 -13 6.77 0.55
0 2 -13 5.44 0.51
0 2 -13 6.11 0.59
0 2 -13 6.94 0.58
1 -2 13 20.18 2.05
1 -2 13 22.75 2.04
1 -2 13 22.02 1.8
-1 -2 -13 23.17 1.71
1 -2 13 22.82 1.89
-1 -2 -13 20.34 1.79
-1 -2 -13 24.43 1.82
-1 -2 -13 20.92 1.72
-1 -2 -13 22.39 1.6
1 -2 13 22.32 1.98
1 2 13 22.9 1.82
1 2 13 19.1 1.55
1 2 13 22.49 1.84
-1 2 -13 21.34 1.65
1 2 13 21.27 1.85
-1 2 -13 22.16 1.73
1 2 13 20.33 1.65
-1 2 -13 22.77 1.52
-1 2 -13 22.24 1.54
-1 2 -13 20.31 1.5
-1 2 -13 23.4 1.5
-1 2 -13 24.81 1.53
-1 2 -13 24.6 1.48
-1 2 -13 23.96 1.46
1 2 13 21.6 1.84
-1 2 -13 20.85 1.44
-1 2 -13 23.03 1.48
-1 2 -13 22.52 1.44
-1 2 -13 22.63 1.41
-1 2 -13 22.79 1.46
1 2 13 22.72 1.56
1 2 13 25.61 1.59
1 2 13 23.44 1.87
2 -2 13 41.67 3.63
-2 -2 -13 40.56 3.51
-2 -2 -13 48.11 3.63
2 -2 13 41.91 4.2
-2 -2 -13 47.56 3.23
2 -2 13 47.14 3.81
-2 -2 -13 46.26 3.42
-2 -2 -13 43.73 3.5
2 -2 13 46.65 4.07
2 -2 13 44.51 4.14
2 -2 13 45.89 3.95
2 2 13 51.46 3.34
-2 2 -13 48.06 3.04
2 2 13 47.97 3.1
-2 2 -13 47.4 2.97
-2 2 -13 52.38 2.92
-2 2 -13 52.57 2.93
-2 2 -13 48.66 2.86
2 2 13 41.29 3.68
-2 2 -13 51.81 3.06
2 2 13 48.75 3.56
-2 2 -13 50.65 3.03
2 2 13 54.6 3.67
-2 2 -13 47.2 3.48
-2 2 -13 51.09 2.85
2 2 13 43.96 3.21
2 2 13 46.85 3.16
-2 2 -13 50.33 3
2 2 13 54.17 3.65
-3 -2 -13 61.16 4.31
-3 -2 -13 54.98 4.68
-3 -2 -13 60.83 4.55
3 2 13 69.73 4.77
3 2 13 61.57 4.27
3 2 13 59.22 4.16
3 2 13 62.98 4.65
-3 2 -13 61.66 4.02
-3 2 -13 67.29 3.99
-3 2 -13 68.4 4.03
-3 2 -13 67.06 3.72
3 2 13 70.83 4.38
-3 2 -13 64.18 3.93
3 2 13 66.48 4.17
-3 2 -13 68.44 3.83
3 2 13 54.23 5.17
-3 2 -13 65.17 3.79
-3 2 -13 56.17 4.58
3 2 13 69.64 4.75
-4 2 -13 3.37 0.41
4 2 13 3.54 0.45
-4 2 -13 4.09 0.52
-4 2 -13 3.8 0.43
-4 2 -13 3.85 0.45
-4 2 -13 3.42 0.45
4 2 13 3.69 0.47
4 2 13 3.25 0.44
-4 2 -13 3.24 0.4
4 2 13 3.96 0.55
-4 2 -13 3.57 0.42
4 2 13 2.82 0.41
4 2 13 3.45 0.43
-5 2 -13 77.59 5.01
5 2 13 77.04 5.04
-5 2 -13 84.09 4.92
5 2 13 82.63 5.19
5 2 13 74 5.79
5 2 13 85.03 5.13
5 2 13 87.04 5.29
-5 2 -13 85.75 5
-5 2 -13 77.61 4.68
-5 2 -13 82.96 4.89
5 2 13 77.77 5.33
-5 2 -13 71.63 5.7
-6 -2 -13 11.6 0.81
-6 -2 -13 9.99 0.73
6 2 13 11.8 0.83
-6 2 -13 11.79 0.81
-6 2 -13 12.76 0.84
6 2 13 12.79 0.87
-6 2 -13 10.96 0.93
-6 2 -13 12.26 0.82
6 2 13 10.28 0.84
6 2 13 12.27 0.88
-6 2 -13 12 0.84
6 2 13 11.62 0.83
5 -3 -13 34.86 2.18
5 -3 -13 35.57 2.24
5 -3 -13 33.79 2.05
5 -3 -13 38.08 2.03
5 3 -13 31.83 2.08
5 3 -13 35.16 2.05
5 3 -13 32.23 2.35
5 3 -13 31.52 2.14
-5 3 13 35.75 2.22
-5 3 13 34.06 2.19
-5 3 13 40.65 2.12
5 3 -13 32.99 2.3
5 3 -13 37.24 2.24
5 3 -13 35.47 2.28
5 3 -13 32.54 2.37
-5 3 13 39.03 2.33
5 3 -13 35.54 2.2
5 3 -13 32.53 2.32
4 3 -13 17.24 1.26
-4 3 13 20.68 1.27
4 3 -13 17.59 1.21
4 3 -13 18.86 1.24
4 3 -13 17.82 1.2
-4 3 13 19.67 1.37
4 3 -13 17.32 1.31
4 3 -13 17.39 1.34
-4 3 13 19.27 1.32
4 3 -13 17.59 1.33
4 3 -13 19.62 1.22
4 3 -13 19.05 1.27
4 3 -13 17.08 1.32
4 3 -13 19.68 1.35
-4 3 13 18.12 1.33
4 3 -13 19.04 1.29
-4 3 13 18.34 1.24
-3 3 13 2.77 0.38
3 3 -13 3.56 0.44
3 3 -13 3.4 0.44
-3 3 13 2.81 0.49
3 3 -13 3.41 0.45
3 3 -13 2.59 0.39
-3 3 13 2.68 0.44
-3 3 13 2.95 0.41
3 3 -13 3.3 0.43
3 3 -13 2.41 0.39
3 3 -13 2.31 0.39
3 3 -13 2.64 0.39
3 3 -13 3.11 0.47
3 3 -13 2.49 0.41
-3 3 13 3.06 0.47
3 3 -13 2.86 0.35
3 3 -13 2.91 0.43
3 3 -13 3.03 0.44
3 3 -13 2.3 0.41
3 3 -13 2.84 0.43
3 3 -13 2.81 0.38
-3 3 13 3.2 0.5
2 3 -13 2.71 0.37
-2 3 13 3.05 0.53
2 3 -13 3.15 0.44
2 3 -13 2.58 0.45
2 3 -13 2.48 0.36
-2 3 13 2.74 0.45
-2 3 13 3.04 0.44
2 3 -13 3.51 0.47
-2 3 13 2.48 0.41
2 3 -13 2.81 0.39
2 3 -13 2.89 0.36
2 3 -13 2.09 0.36
2 3 -13 2.72 0.44
2 3 -13 3.32 0.49
2 3 -13 2.7 0.43
2 3 -13 2.93 0.45
2 3 -13 2.39 0.39
2 3 -13 2.57 0.41
2 3 -13 2.23 0.39
2 3 -13 2.94 0.38
2 3 -13 2.54 0.38
2 3 -13 2.69 0.37
-2 3 13 3.75 0.46
-2 3 13 3.12 0.45
1 3 -13 70.11 4.52
-1 3 13 77.01 4.97
1 3 -13 72.67 4.51
1 3 -13 73.1 4.68
1 3 -13 80.91 4.65
1 3 -13 75.1 4.67
1 3 -13 71.7 4.7
-1 3 13 74.64 4.91
1 3 -13 78.57 4.81
1 3 -13 75.76 4.34
1 3 -13 75.21 4.64
1 3 -13 85.84 4.48
1 3 -13 71.74 4.83
1 3 -13 80.17 4.51
-1 3 13 82.68 4.75
-1 3 13 67.65 5.55
1 3 -13 77.89 4.46
1 3 -13 80.59 4.51
-1 3 13 69.33 5.6
1 3 -13 65.72 5.37
1 3 -13 75.72 4.59
1 3 -13 78.21 4.38
1 3 -13 72.79 5.21
1 3 -13 70.63 4.68
-1 3 13 78.21 4.42
0 3 -13 -0.07 0.22
0 3 -13 0.29 0.23
0 3 -13 0.18 0.23
0 3 -13 0.22 0.2
0 3 13 0.12 0.19
0 3 -13 0.05 0.19
0 3 -13 0.11 0.23
0 3 -13 0.12 0.22
0 3 -13 0.12 0.16
0 3 -13 0.32 0.2
0 3 13 0.07 0.21
0 3 -13 -0.01 0.22
0 3 13 0.09 0.21
0 3 -13 0.23 0.19
0 3 13 0.13 0.15
0 3 13 0.09 0.16
0 3 -13 -0.03 0.21
0 3 -13 0.07 0.2
0 3 13 0.51 0.25
0 3 -13 0.13 0.24
0 3 13 0.05 0.19
0 3 -13 0.08 0.22
0 3 -13 0.25 0.25
0 3 13 0.02 0.16
0 3 -13 -0.01 0.18
0 3 -13 -0.07 0.2
0 3 -13 0.2 0.23
1 3 13 72.1 5.74
1 3 13 68.27 5.22
-1 3 -13 73.91 5.37
-1 3 -13 78.22 4.82
-1 3 -13 79.04 4.81
-1 3 -13 72.25 4.97
1 3 13 70.01 4.79
-1 3 -13 80.4 4.76
-1 3 -13 83.5 4.66
-1 3 -13 80.32 4.58
-1 3 -13 74.04 4.8
-1 3 -13 82.44 4.62
-1 3 -13 65.61 5.55
-1 3 -13 77.72 4.53
1 3 13 87.78 5.04
-1 3 -13 82.1 4.65
1 3 13 84.23 5.01
1 3 13 81.38 5.85
-1 3 -13 81.42 4.87
-1 3 -13 76.63 4.87
1 3 13 80.39 5.74
-1 3 -13 78.45 4.54
-2 3 -13 5.73 0.58
-2 3 -13 5.15 0.52
2 3 13 5.86 0.53
-2 3 -13 6.33 0.56
2 3 13 5.88 0.68
-2 3 -13 5.96 0.59
2 3 13 6.32 0.64
-2 3 -13 6 0.55
-2 3 -13 5.23 0.6
-2 3 -13 6.03 0.55
-2 3 -13 5.19 0.54
2 3 13 5.56 0.57
-2 3 -13 6.34 0.58
2 3 13 6.7 0.7
2 3 13 5.68 0.63
-2 3 -13 6.47 0.6
-2 3 -13 6.88 0.57
3 3 13 9.27 0.8
3 3 13 9.12 0.8
-3 3 -13 8.77 0.72
-3 3 -13 8.27 0.73
-3 3 -13 8.9 0.71
3 3 13 10.57 0.87
-3 3 -13 9.07 0.68
3 3 13 9.5 0.86
-3 3 -13 8.66 0.74
-3 3 -13 9.38 0.82
3 3 13 8.14 0.75
-3 3 -13 7.75 0.75
3 3 13 8.68 0.76
-3 3 -13 8.42 0.71
-4 3 -13 10.76 0.77
-4 3 -13 10.66 0.81
4 3 13 11.34 0.85
-4 3 -13 11.83 0.82
-4 3 -13 9.57 0.9
-4 3 -13 11.64 0.81
4 3 13 12.6 0.9
4 3 13 12.05 0.89
4 3 13 10.58 0.91
-4 3 -13 10.73 0.83
4 3 13 11.89 0.95
4 3 13 9.31 0.81
-4 3 -13 10.38 0.87
-5 3 -13 8.81 0.62
-5 3 -13 7.98 0.7
-5 3 -13 9.31 0.64
5 3 13 7.4 0.62
5 3 13 9.08 0.64
5 3 13 8.49 0.65
5 3 13 8.6 0.67
-5 3 -13 8.83 0.62
-2 4 13 8.77 0.61
-2 4 13 8.2 0.63
-2 4 13 6.89 0.54
-2 4 13 7.39 0.6
-1 4 13 22.11 1.47
-1 4 13 20.77 1.45
-1 4 13 19.68 1.62
-1 4 13 21.6 1.38
0 4 -13 0.77 0.19
0 4 13 0.25 0.21
0 4 -13 0.28 0.19
0 4 -13 0.44 0.2
0 4 13 0.49 0.2
0 4 13 0.35 0.17
0 4 -13 0.39 0.17
0 4 13 0.55 0.21
0 4 13 0.37 0.17
0 4 13 0.34 0.17
1 4 13 0.62 0.22
-1 4 -13 0.74 0.18
-1 4 -13 1.03 0.2
-1 4 -13 0.45 0.18
-1 4 -13 0.39 0.2
1 4 13 0.77 0.23
-1 4 -13 0.53 0.2
-1 4 -13 0.51 0.19
1 4 13 0.71 0.19
1 4 13 0.89 0.24
1 4 13 0.78 0.18
-1 4 -13 0.88 0.19
2 4 13 2.63 0.35
-2 4 -13 2.76 0.3
-2 4 -13 2.85 0.29
-2 4 -13 2.81 0.29
-2 4 -13 2.9 0.29
2 4 13 2.92 0.35
2 4 13 3.15 0.37
-8 0 14 0.9 0.18
8 0 -14 1.03 0.16
-8 0 14 1 0.17
8 0 -14 0.99 0.17
7 0 -14 0.13 0.12
7 0 -14 0.01 0.12
7 0 -14 0.09 0.13
7 0 -14 0.05 0.11
7 0 -14 -0.01 0.13
6 0 -14 73.19 4.63
6 0 -14 83.45 5.07
6 0 -14 80.18 5.2
6 0 -14 85.03 4.97
6 0 -14 78.84 4.55
6 0 -14 79.65 4.9
5 0 -14 0.03 0.13
5 0 -14 0.03 0.14
5 0 -14 0.14 0.14
5 0 -14 0.06 0.13
5 0 -14 0.01 0.11
5 0 -14 -0.16 0.11
5 0 -14 -0.03 0.11
5 0 -14 0.15 0.12
4 0 -14 67.12 5.81
-4 0 14 70.24 5.2
-4 0 14 82.94 5.81
-4 0 14 81.73 5.78
-4 0 14 82.77 5.79
4 0 -14 79.25 4.83
4 0 -14 78.28 4.66
4 0 -14 81.66 4.73
-4 0 14 69.73 5.73
4 0 -14 73.94 4.42
4 0 -14 84.5 4.37
-4 0 14 71.91 6.09
4 0 -14 74.74 4.59
-4 0 14 70.21 5.74
-4 0 14 74.57 5.79
-4 0 14 73.81 5.84
4 0 -14 83.75 4.47
-3 0 14 0.05 0.13
-3 0 14 0.08 0.13
3 0 -14 0.1 0.1
-3 0 14 0.14 0.13
3 0 -14 0.14 0.12
3 0 -14 -0.14 0.12
3 0 -14 0.15 0.11
-3 0 14 0.18 0.14
3 0 -14 0.12 0.11
3 0 -14 -0.01 0.09
3 0 -14 0.05 0.12
-3 0 14 0.09 0.15
-3 0 14 0.06 0.16
-3 0 14 0.12 0.15
3 0 -14 0.12 0.11
3 0 -14 0.07 0.11
3 0 -14 0.01 0.13
-3 0 14 0.01 0.14
-3 0 14 0.1 0.12
3 0 -14 0.22 0.13
2 0 -14 1.22 0.19
2 0 -14 0.7 0.15
-2 0 14 1.23 0.23
-2 0 14 1.14 0.25
2 0 -14 0.83 0.17
2 0 -14 0.91 0.21
2 0 -14 0.55 0.17
2 0 -14 0.93 0.18
2 0 -14 0.61 0.17
2 0 -14 0.99 0.2
-2 0 14 0.93 0.23
-2 0 14 0.81 0.2
-2 0 14 0.89 0.22
-2 0 14 0.65 0.21
-2 0 14 0.92 0.24
-2 0 14 0.72 0.21
2 0 -14 1.33 0.19
2 0 -14 0.77 0.17
2 0 -14 0.83 0.21
-2 0 14 0.78 0.21
-1 0 14 0.31 0.15
1 0 -14 0.16 0.12
-1 0 14 0.03 0.09
1 0 -14 -0.07 0.09
1 0 -14 0.07 0.1
1 0 -14 0.06 0.1
-1 0 14 0.08 0.1
-1 0 14 0.34 0.15
-1 0 14 0.17 0.12
-1 0 14 0.21 0.13
1 0 -14 0.03 0.09
1 0 -14 0.06 0.08
1 0 -14 0 0.11
1 0 -14 0 0.12
1 0 -14 -0.01 0.1
1 0 -14 0.14 0.1
-1 0 14 0.14 0.11
-1 0 14 0.18 0.12
-1 0 14 0.06 0.11
1 0 -14 0.08 0.09
1 0 -14 0.03 0.09
1 0 -14 0.15 0.12
0 0 -14 182.67 10.53
0 0 14 198.83 13.68
0 0 14 184.15 15.18
0 0 -14 208.14 13.71
0 0 -14 201.18 12.83
0 0 -14 163.24 10.33
0 0 -14 172.38 10.9
0 0 -14 176.28 10.98
0 0 14 204.12 13.66
0 0 14 201.44 13.76
0 0 -14 183.56 10.61
0 0 -14 181.18 10.58
0 0 14 208.71 14.53
0 0 -14 172.85 13.51
0 0 -14 169.57 10.59
0 0 14 187.35 14.22
0 0 -14 160.12 10.54
1 0 14 -0.04 0.1
1 0 14 0.04 0.11
-1 0 -14 -0.03 0.12
1 0 14 0.11 0.1
-1 0 -14 0 0.12
-1 0 -14 -0.07 0.09
-1 0 -14 -0.03 0.1
-1 0 -14 0.04 0.1
-1 0 -14 0.01 0.1
1 0 14 0.08 0.12
1 0 14 0.01 0.09
-1 0 -14 -0.03 0.11
1 0 14 0.22 0.14
1 0 14 0.06 0.1
1 0 14 -0.03 0.1
-1 0 -14 -0.05 0.09
-1 0 -14 0.01 0.08
-1 0 -14 0.09 0.11
-1 0 -14 0.11 0.1
-1 0 -14 0.07 0.1
2 0 14 285.87 19.61
-2 0 -14 248.01 16
-2 0 -14 235.05 15.07
-2 0 -14 284.86 19.35
-2 0 -14 300.42 18.35
-2 0 -14 258.58 14.77
2 0 14 279.57 20.74
-2 0 -14 255.85 17.17
-2 0 -14 267.43 15.68
-2 0 -14 251.43 15.12
2 0 14 247.5 20.3
-2 0 -14 270.8 15.14
-2 0 -14 266.15 15.14
2 0 14 288.94 19.54
2 0 14 299.23 19.65
2 0 14 222.64 21.62
-2 0 -14 249.96 15.78
-3 0 -14 0.03 0.14
-3 0 -14 0.14 0.15
3 0 14 0.05 0.16
3 0 14 -0.08 0.14
-3 0 -14 0.07 0.15
3 0 14 0.01 0.17
-3 0 -14 0.1 0.18
3 0 14 0.05 0.15
-3 0 -14 0.03 0.15
3 0 14 0.22 0.18
-3 0 -14 0.04 0.13
-3 0 -14 0.15 0.14
-3 0 -14 0.05 0.11
3 0 14 0.07 0.13
-3 0 -14 0.05 0.13
-3 0 -14 0.01 0.12
-3 0 -14 0.03 0.14
-3 0 -14 -0.03 0.15
4 0 14 4.31 0.56
-4 0 -14 5.61 0.47
4 0 14 3.79 0.54
4 0 14 3.66 0.55
-4 0 -14 4.56 0.5
-4 0 -14 6.32 0.49
-4 0 -14 5.6 0.43
-4 0 -14 5.59 0.42
-4 0 -14 4.62 0.52
4 0 14 5.04 0.56
-4 0 -14 4.96 0.57
-4 0 -14 4.37 0.4
-4 0 -14 5.05 0.44
-4 0 -14 4.17 0.43
5 0 14 0.05 0.13
-5 0 -14 0.24 0.14
5 0 14 0.35 0.14
-5 0 -14 0.02 0.14
-5 0 -14 0.08 0.16
-5 0 -14 0.05 0.18
-5 0 -14 0.23 0.17
-5 0 -14 0.09 0.13
5 0 14 -0.02 0.12
5 0 14 0.12 0.13
5 0 14 -0.04 0.14
-5 0 -14 0.05 0.13
-6 0 -14 80.41 4.83
6 0 14 87.86 5.57
6 0 14 78.71 5.39
-6 0 -14 85.98 5.29
-6 0 -14 87.44 5.21
-6 0 -14 88.51 4.98
-6 0 -14 84.86 5.17
6 0 14 90.77 5.37
6 0 14 84.56 5.59
6 0 14 87.23 5.49
-7 0 -14 -0.07 0.12
-7 0 -14 0.1 0.14
-7 0 -14 0.08 0.11
-7 0 -14 -0.09 0.12
7 0 14 0.13 0.11
-7 0 -14 -0.01 0.1
7 0 14 -0.08 0.09
7 0 14 0.09 0.1
7 0 14 0.14 0.11
7 -1 -14 0.6 0.17
7 -1 -14 0.67 0.17
7 -1 -14 0.77 0.19
7 -1 -14 0.71 0.16
-7 1 14 0.55 0.18
7 1 -14 0.47 0.17
7 1 -14 0.71 0.18
-7 1 14 0.6 0.16
-7 1 14 0.56 0.17
7 1 -14 0.41 0.16
-7 1 14 0.47 0.16
7 1 -14 0.19 0.13
7 1 -14 0.2 0.16
7 1 -14 0.74 0.17
-7 1 14 0.8 0.21
6 -1 -14 14.65 0.96
6 -1 -14 13.28 0.97
6 -1 -14 14.21 0.94
6 -1 -14 12.06 0.97
6 -1 -14 13.07 0.88
6 -1 -14 14.4 0.89
6 1 -14 13.3 1
-6 1 14 12.73 0.99
-6 1 14 12.4 0.95
6 1 -14 13.29 0.97
6 1 -14 14.29 0.97
-6 1 14 15.06 1
-6 1 14 14 0.92
6 1 -14 12.89 0.91
6 1 -14 12.66 0.99
-6 1 14 13.91 0.97
-6 1 14 15.4 1.04
6 1 -14 13.13 0.9
6 1 -14 13.41 1.02
5 -1 -14 6.28 0.51
5 -1 -14 5.89 0.49
5 -1 -14 5.69 0.48
5 -1 -14 6.29 0.53
5 -1 -14 6.72 0.53
5 -1 -14 6.28 0.48
5 1 -14 6.04 0.54
5 1 -14 5.89 0.53
5 1 -14 6.25 0.57
5 1 -14 5.97 0.53
5 1 -14 6.14 0.56
5 1 -14 6.03 0.51
5 1 -14 5.38 0.53
5 1 -14 5.62 0.51
4 -1 -14 63.43 5.45
-4 -1 14 63.28 5.14
4 -1 -14 68.63 3.74
4 -1 -14 60.62 3.89
-4 -1 14 61.66 4.81
4 -1 -14 60.08 4.91
4 -1 -14 59.83 3.69
4 -1 -14 67.17 3.96
-4 -1 14 62.74 4.85
-4 -1 14 62.23 4.87
4 -1 -14 71.27 3.67
-4 -1 14 63.32 4.83
4 -1 -14 62.99 5.55
4 -1 -14 69.97 4.06
-4 -1 14 64.18 4.87
4 -1 -14 64.64 3.85
4 1 -14 67.32 4.09
4 1 -14 67.47 3.78
-4 1 14 61.21 4.86
4 1 -14 68.2 3.69
-4 1 14 63.18 4.86
4 1 -14 56.44 3.73
4 1 -14 63.98 3.74
4 1 -14 65.58 3.93
4 1 -14 64.11 3.89
-4 1 14 63.38 4.94
4 1 -14 55.79 4.14
4 1 -14 65.57 4.18
-4 1 14 57.86 4.86
4 1 -14 64.33 3.99
-3 -1 14 16.2 1.3
-3 -1 14 15.74 1.37
3 -1 -14 12.78 0.95
3 -1 -14 14.12 1.25
-3 -1 14 14.34 1.25
3 -1 -14 16.07 1.31
-3 -1 14 16.1 1.18
3 -1 -14 14.27 1.01
3 -1 -14 15.96 1.48
-3 -1 14 16.52 1.3
3 -1 -14 14.85 1.05
3 -1 -14 15.13 0.96
3 -1 -14 15 0.97
-3 -1 14 16.42 1.31
-3 -1 14 15.6 1.28
-3 -1 14 14.9 1.24
3 -1 -14 13.95 0.96
3 -1 -14 14.81 1
-3 1 14 13.99 1.27
3 1 -14 15.62 1.02
3 1 -14 14.35 1.09
-3 1 14 15.32 1.29
3 1 -14 13.16 1
3 1 -14 14.12 1
3 1 -14 15.09 1.05
-3 1 14 14.6 1.3
3 1 -14 14.59 1.01
3 1 -14 15.51 1.06
-3 1 14 15.84 1.31
3 1 -14 15.51 0.99
-3 1 14 15.92 1.31
3 1 -14 13.89 0.99
3 1 -14 15.92 1.09
3 1 -14 15.12 1.03
2 -1 -14 185.75 12.75
-2 -1 14 178.01 12.77
-2 -1 14 178.9 13.28
2 -1 -14 158.71 11.9
2 -1 -14 187.91 14.6
-2 -1 14 183.35 12.79
2 -1 -14 157.62 9.85
2 -1 -14 195.68 12.99
2 -1 -14 159.56 10.64
-2 -1 14 176.61 12.74
-2 -1 14 186.42 11.57
-2 -1 14 179.82 13.52
-2 -1 14 169.78 12.69
-2 -1 14 174.38 12.81
2 1 -14 145.39 9.61
-2 1 14 179.84 12.75
2 1 -14 162.28 9.87
2 1 -14 149.86 9.85
2 1 -14 146.87 10.31
2 1 -14 158.72 9.89
-2 1 14 178.05 12.82
2 1 -14 177.61 9.86
2 1 -14 161.24 10.45
2 1 -14 184.71 9.64
-2 1 14 165.23 12.8
2 1 -14 174.93 9.84
2 1 -14 171.44 10.68
-2 1 14 184.24 12.76
2 1 -14 182.22 10.21
1 -1 -14 5.85 0.57
-1 -1 14 5.36 0.59
1 -1 -14 5.64 0.53
1 -1 -14 6.18 0.64
-1 -1 14 6.39 0.58
-1 -1 14 5.68 0.57
-1 -1 14 5.91 0.52
-1 -1 14 5.88 0.62
-1 -1 14 5.58 0.54
-1 -1 14 5.62 0.57
1 -1 -14 5.89 0.52
-1 -1 14 5.38 0.52
1 -1 -14 6.68 0.59
-1 1 14 5.46 0.57
-1 1 14 5 0.57
1 1 -14 4.41 0.45
1 1 -14 5.44 0.45
-1 1 14 5.65 0.57
1 1 -14 5.11 0.46
1 1 -14 5.24 0.48
1 1 -14 5.86 0.48
-1 1 14 5.95 0.58
1 1 -14 5.63 0.47
1 1 -14 4.96 0.43
-1 1 14 5.96 0.57
1 1 -14 5.78 0.48
1 1 -14 5.25 0.43
1 1 -14 4.55 0.43
1 1 -14 5.06 0.46
1 1 -14 5.28 0.45
0 -1 14 65.7 5.15
0 -1 14 72.42 5.48
0 -1 -14 69.89 5.1
0 -1 14 75.01 5.18
0 -1 -14 75.44 4.85
0 -1 14 72 5.19
0 -1 14 74.87 5.39
0 -1 14 76.18 5.77
0 -1 -14 74.55 5.18
0 -1 -14 68.37 5.24
0 1 -14 60.06 4.16
0 1 -14 64.28 4.12
0 1 -14 59.75 4.21
0 1 14 71.31 5.21
0 1 -14 68.65 4.02
0 1 14 66.44 5.47
0 1 -14 63.27 3.91
0 1 -14 63.31 3.99
0 1 14 72.98 5.2
0 1 -14 60.78 3.96
0 1 -14 70.19 4
0 1 14 72.88 5.17
0 1 -14 66.79 4.03
0 1 -14 65.13 4.01
0 1 -14 65.94 4.16
1 -1 14 1.72 0.36
-1 -1 -14 1.29 0.26
-1 -1 -14 1.07 0.22
1 -1 14 1.16 0.27
1 -1 14 1.22 0.23
1 -1 14 1.04 0.27
1 -1 14 1.21 0.26
-1 -1 -14 1.23 0.27
-1 -1 -14 0.9 0.21
1 -1 14 1.4 0.3
-1 -1 -14 1.08 0.24
-1 1 -14 1.19 0.24
1 1 14 1.38 0.29
-1 1 -14 0.91 0.21
-1 1 -14 1.58 0.25
-1 1 -14 1.1 0.24
-1 1 -14 1.16 0.24
-1 1 -14 1.02 0.21
-1 1 -14 1.09 0.21
-1 1 -14 1.02 0.23
1 1 14 1.16 0.28
1 1 14 1.4 0.3
-1 1 -14 1.42 0.22
1 1 14 1.49 0.29
-1 1 -14 1.15 0.26
2 -1 14 24.82 2.02
-2 -1 -14 25.72 1.9
2 -1 14 22.49 2.14
-2 -1 -14 22.64 1.87
2 -1 14 22.84 2.04
-2 -1 -14 25.27 1.78
2 -1 14 25.23 2
-2 -1 -14 23.7 1.8
2 -1 14 23.53 2.11
-2 -1 -14 25.06 1.68
2 -1 14 25.15 1.91
-2 1 -14 21.11 1.53
-2 1 -14 25.19 1.51
-2 1 -14 22.76 1.56
2 1 14 23.53 1.9
-2 1 -14 25.24 1.48
2 1 14 23.25 1.83
2 1 14 22.66 1.63
2 1 14 23.15 2.02
2 1 14 24.88 1.93
-2 1 -14 21.35 1.45
-2 1 -14 24.09 1.49
-2 1 -14 23.54 1.46
2 1 14 21.28 1.88
-2 1 -14 24.74 1.55
-2 1 -14 22.71 1.52
3 -1 14 0.84 0.25
3 -1 14 0.79 0.26
3 -1 14 1.21 0.32
3 -1 14 0.99 0.28
-3 -1 -14 0.62 0.22
-3 -1 -14 1.23 0.29
3 -1 14 0.53 0.24
-3 -1 -14 0.93 0.25
3 -1 14 1.08 0.31
-3 -1 -14 1.22 0.26
3 -1 14 0.7 0.23
-3 1 -14 1.09 0.26
-3 1 -14 1.31 0.26
-3 1 -14 0.88 0.21
-3 1 -14 1.08 0.25
-3 1 -14 1.23 0.27
3 1 14 1.35 0.34
3 1 14 1.13 0.3
3 1 14 0.97 0.26
-3 1 -14 1.09 0.24
3 1 14 1.1 0.26
3 1 14 0.77 0.23
3 1 14 1.29 0.3
-3 1 -14 0.98 0.24
3 1 14 1.07 0.28
3 1 14 1.03 0.29
-3 1 -14 0.87 0.23
3 1 14 0.82 0.23
3 1 14 0.8 0.22
-4 -1 -14 140.22 10.97
-4 -1 -14 156.83 11.35
4 -1 14 147.57 11.45
-4 -1 -14 151.4 10.07
4 1 14 167.07 9.67
-4 1 -14 148.04 9.38
4 1 14 154.03 9.52
4 1 14 159.53 10.11
-4 1 -14 153.38 9.2
-4 1 -14 146.26 8.83
-4 1 -14 140.2 9.44
4 1 14 165.57 9.95
-4 1 -14 159.3 8.65
4 1 14 168.58 9.78
-4 1 -14 153.3 9.25
4 1 14 138.52 11.43
4 1 14 154.39 11.02
-4 1 -14 160.7 8.87
-5 -1 -14 1.37 0.23
-5 -1 -14 1.19 0.27
-5 1 -14 1.64 0.32
-5 1 -14 1.54 0.27
5 1 14 1.7 0.32
5 1 14 1.58 0.3
5 1 14 1.78 0.31
-5 1 -14 1.45 0.29
-5 1 -14 1.23 0.27
5 1 14 1.28 0.28
-5 1 -14 1.31 0.24
-5 1 -14 1.8 0.32
5 1 14 1.17 0.24
-6 -1 -14 53.06 3.25
6 -1 14 47.32 3.47
-6 -1 -14 51.04 2.97
-6 -1 -14 51.91 3.21
-6 -1 -14 53.57 3.07
-6 -1 -14 45.15 3.15
6 -1 14 49.87 3.41
6 1 14 48.93 3.43
-6 1 -14 48.9 3.27
-6 1 -14 53.42 3.21
-6 1 -14 48.62 3.05
6 1 14 56.51 3.46
6 1 14 57.19 3.35
-6 1 -14 53.94 3.22
-6 1 -14 56.73 3.28
6 1 14 53.58 3.31
6 1 14 55.19 3.4
-7 -1 -14 1.99 0.21
7 -1 14 1.91 0.22
-7 -1 -14 2.27 0.24
-7 -1 -14 2.25 0.23
7 -1 14 1.96 0.23
7 -1 14 2.36 0.24
7 -1 14 2.11 0.23
-7 -1 -14 2.13 0.23
-7 1 -14 2.02 0.26
7 1 14 2.12 0.24
7 1 14 2.18 0.24
-7 1 -14 1.79 0.24
7 1 14 2.29 0.24
-7 1 -14 2.37 0.25
7 1 14 1.88 0.24
-7 1 -14 2.14 0.24
7 -2 -14 0.34 0.12
7 -2 -14 0.28 0.1
-7 2 14 0.54 0.14
7 2 -14 0.32 0.12
7 2 -14 0.33 0.12
7 2 -14 0.18 0.12
-7 2 14 0.21 0.11
6 -2 -14 54.44 3.35
6 -2 -14 60.09 3.3
6 -2 -14 62.7 3.67
6 -2 -14 54.49 3.52
6 -2 -14 59.59 3.58
-6 2 14 64.45 3.6
6 2 -14 58.26 3.33
6 2 -14 60.32 3.7
-6 2 14 63.17 3.41
6 2 -14 58.72 3.57
6 2 -14 56.91 3.38
-6 2 14 53.13 3.59
6 2 -14 57.37 3.62
-6 2 14 65.23 3.78
6 2 -14 52.49 3.76
6 2 -14 54.47 3.78
-6 2 14 58.24 3.59
6 2 -14 49.97 3.86
5 -2 -14 5.43 0.42
5 -2 -14 4.72 0.41
5 -2 -14 5.11 0.41
5 -2 -14 4.7 0.43
5 -2 -14 4.35 0.39
5 -2 -14 5.12 0.45
5 2 -14 4.56 0.43
-5 2 14 4.55 0.46
5 2 -14 5.24 0.49
5 2 -14 4.82 0.46
5 2 -14 4.63 0.46
-5 2 14 6.04 0.5
5 2 -14 4.5 0.47
5 2 -14 4.86 0.49
5 2 -14 4.85 0.47
5 2 -14 4.43 0.5
-5 2 14 4.71 0.48
5 2 -14 4.9 0.46
5 2 -14 4.81 0.48
-5 2 14 4.95 0.49
-5 2 14 5.52 0.5
-5 2 14 5.7 0.54
4 -2 -14 54.11 3.53
4 -2 -14 52.72 3.62
-4 2 14 54.03 3.77
4 2 -14 58.69 3.51
4 2 -14 61.38 3.7
4 2 -14 60.03 3.8
4 2 -14 54.7 3.46
4 2 -14 61.4 3.65
-4 2 14 66.04 3.53
-4 2 14 62.9 3.67
4 2 -14 60.29 3.44
4 2 -14 54.21 3.45
4 2 -14 57.76 3.85
4 2 -14 54.25 3.9
4 2 -14 54.2 3.46
4 2 -14 57.78 3.95
4 2 -14 58.54 3.62
-4 2 14 66.29 3.89
-4 2 14 58.01 3.85
4 2 -14 56.15 3.83
-4 2 14 63.55 3.74
-3 2 14 0.47 0.23
-3 2 14 1.47 0.41
3 2 -14 0.27 0.2
-3 2 14 0.06 0.2
-3 2 14 0.05 0.23
3 2 -14 0.02 0.18
3 2 -14 0.52 0.2
3 2 -14 0.16 0.17
-3 2 14 0.39 0.23
3 2 -14 0.39 0.21
3 2 -14 0.25 0.19
3 2 -14 0.12 0.22
3 2 -14 0.12 0.18
3 2 -14 0.45 0.2
3 2 -14 0.21 0.21
-3 2 14 0.34 0.23
3 2 -14 0.22 0.2
3 2 -14 0.11 0.16
3 2 -14 0.16 0.21
-3 2 14 0.25 0.2
3 2 -14 0.39 0.21
3 2 -14 0.43 0.22
3 2 -14 0.43 0.2
3 2 -14 0.44 0.22
3 2 -14 0.39 0.25
-3 2 14 0.1 0.28
-3 2 14 0.08 0.22
3 2 -14 0.56 0.25
-3 2 14 0.39 0.23
-2 -2 14 1.17 0.32
2 -2 -14 1.01 0.29
2 -2 -14 0.95 0.27
-2 -2 14 0.71 0.32
-2 -2 14 0.61 0.31
-2 -2 14 0.71 0.25
2 -2 -14 0.73 0.28
-2 -2 14 0.61 0.3
2 -2 -14 0.21 0.22
-2 -2 14 1.13 0.33
-2 -2 14 0.86 0.28
2 -2 -14 0.75 0.23
2 2 -14 1.58 0.34
2 2 -14 1.43 0.28
2 2 -14 0.58 0.22
2 2 -14 1.23 0.28
-2 2 14 0.53 0.24
2 2 -14 1.3 0.28
-2 2 14 0.86 0.29
2 2 -14 1.65 0.31
2 2 -14 1.36 0.3
2 2 -14 1.08 0.26
2 2 -14 1.16 0.26
2 2 -14 1.01 0.28
-2 2 14 0.87 0.26
-2 2 14 1.03 0.31
2 2 -14 1.29 0.29
2 2 -14 0.86 0.27
-2 2 14 1.06 0.26
-2 2 14 0.38 0.26
2 2 -14 0.76 0.27
2 2 -14 1.1 0.29
2 2 -14 0.99 0.28
-2 2 14 1.16 0.36
2 2 -14 0.79 0.27
2 2 -14 1.62 0.28
-2 2 14 0.87 0.28
2 2 -14 0.94 0.27
2 2 -14 1.21 0.27
2 2 -14 1.11 0.25
-2 2 14 1.56 0.33
1 -2 -14 3.92 0.47
-1 -2 14 3.48 0.48
1 -2 -14 3.47 0.45
-1 -2 14 3.44 0.42
1 -2 -14 3.94 0.44
-1 -2 14 4.31 0.52
-1 -2 14 3.47 0.49
-1 -2 14 3.66 0.56
-1 -2 14 3.37 0.47
1 -2 -14 2.63 0.48
1 -2 -14 3.22 0.44
-1 2 14 3.58 0.52
-1 2 14 3.89 0.43
-1 2 14 3.19 0.46
1 2 -14 4.23 0.46
-1 2 14 2.51 0.47
1 2 -14 3.99 0.41
1 2 -14 3.69 0.4
1 2 -14 4.11 0.45
-1 2 14 3.41 0.48
1 2 -14 4.49 0.55
1 2 -14 4.01 0.46
1 2 -14 3.81 0.41
-1 2 14 3.54 0.52
1 2 -14 3.91 0.41
1 2 -14 3.49 0.42
1 2 -14 3.04 0.44
1 2 -14 3.37 0.42
1 2 -14 4.59 0.53
-1 2 14 3.67 0.53
1 2 -14 4.08 0.44
-1 2 14 4.1 0.4
1 2 -14 3.49 0.39
1 2 -14 4.08 0.41
1 2 -14 3.69 0.4
1 2 -14 4.36 0.45
-1 2 14 3.93 0.57
1 2 -14 4.02 0.41
-1 2 14 3.61 0.49
1 2 -14 3.62 0.4
1 2 -14 3.86 0.41
1 2 -14 3.98 0.42
0 -2 -14 117.87 8.69
0 -2 -14 137.31 9.31
0 -2 14 126.68 9.89
0 -2 -14 113.36 10.04
0 -2 14 115.34 10.47
0 -2 -14 131.06 9.81
0 -2 14 122.43 10.64
0 -2 14 136.48 11.04
0 -2 -14 138.95 9.92
0 -2 14 132.23 10.32
0 2 -14 129.19 8.2
0 2 -14 138.9 7.78
0 2 -14 142.46 7.95
0 2 14 138.5 9.68
0 2 14 135.97 9.81
0 2 -14 136.32 7.99
0 2 -14 136.56 8.3
0 2 14 115.81 9.97
0 2 -14 137.02 8.05
0 2 -14 126.99 8.12
0 2 -14 139.8 7.67
0 2 14 138.07 8.13
0 2 14 148.74 8.53
0 2 14 125.76 9.99
0 2 14 144.38 8.47
0 2 -14 120.82 8.01
0 2 14 125.03 9.65
0 2 -14 127.89 7.49
0 2 -14 146.53 7.76
0 2 -14 134.11 7.72
0 2 -14 133.36 9.39
0 2 -14 146.08 7.69
0 2 -14 147.1 7.58
0 2 14 123.85 8.79
0 2 -14 142.81 8.06
0 2 -14 135.94 8.15
0 2 -14 144.88 7.78
-1 -2 -14 12.7 1.13
-1 -2 -14 11.98 1
1 -2 14 12.69 1.19
1 -2 14 11.44 1.29
1 -2 14 12.75 1.26
1 -2 14 12.31 1.13
-1 -2 -14 11.48 1.06
1 -2 14 12.2 1.28
-1 -2 -14 12.12 1.11
-1 -2 -14 13.39 1.07
-1 2 -14 13.18 1.01
-1 2 -14 13.65 0.97
-1 2 -14 13.62 0.95
-1 2 -14 13.42 0.9
1 2 14 10.66 0.97
-1 2 -14 13.72 0.97
1 2 14 14.55 1.23
1 2 14 12.51 1.16
-1 2 -14 14.96 0.99
-1 2 -14 14.12 0.95
1 2 14 12.92 1.19
-1 2 -14 12.11 1.07
-1 2 -14 13.89 0.94
-1 2 -14 12.03 0.9
-1 2 -14 13.48 0.94
1 2 14 13.94 1.22
1 2 14 14.83 1.02
-1 2 -14 12.69 0.95
-1 2 -14 13.71 0.93
1 2 14 12.2 1.07
1 2 14 14.54 1.2
1 2 14 13.56 0.99
2 -2 14 85.03 7.32
-2 -2 -14 85.67 7.03
-2 -2 -14 94.94 6.46
-2 -2 -14 93.08 6.87
2 -2 14 91.35 7.89
2 -2 14 81.38 8.41
2 -2 14 90.71 8.28
-2 -2 -14 98.77 7.28
2 -2 14 92.87 7.64
2 -2 14 94.96 8.16
-2 2 -14 108.98 5.97
-2 2 -14 96.29 5.93
2 2 14 98.24 6.28
-2 2 -14 105.63 6.08
2 2 14 91.9 6.4
-2 2 -14 110.09 5.79
2 2 14 85.63 7.39
2 2 14 111.86 7.29
-2 2 -14 96.39 6.96
-2 2 -14 97.54 6.09
2 2 14 110.11 6.62
2 2 14 104.07 7.13
-2 2 -14 106.26 5.77
-2 2 -14 105.54 5.64
-2 2 -14 102.96 5.72
-2 2 -14 107.93 6.01
2 2 14 102.18 6.22
-3 2 -14 3.48 0.47
-3 2 -14 2.87 0.42
-3 2 -14 2.69 0.45
-3 2 -14 3.02 0.41
-3 2 -14 2.84 0.4
-3 2 -14 3.07 0.46
3 2 14 3.12 0.48
-3 2 -14 3.4 0.43
3 2 14 2.6 0.42
3 2 14 3.03 0.49
3 2 14 2.69 0.45
-3 2 -14 3.14 0.43
3 2 14 3.16 0.46
3 2 14 3.24 0.41
-3 2 -14 2.88 0.41
3 2 14 3.36 0.45
4 2 14 4.51 0.48
-4 2 -14 3.76 0.48
4 2 14 4.22 0.5
4 2 14 4.09 0.49
4 2 14 3.67 0.46
-4 2 -14 4.44 0.44
-4 2 -14 4.51 0.42
4 2 14 3.44 0.45
-4 2 -14 3.99 0.45
-4 2 -14 4.65 0.48
-4 2 -14 3.7 0.43
4 2 14 4.55 0.48
-4 2 -14 4.78 0.45
-5 2 -14 2.08 0.32
5 2 14 1.59 0.28
-5 2 -14 2.16 0.34
-5 2 -14 2.2 0.31
5 2 14 2.18 0.34
5 2 14 1.95 0.32
5 2 14 2.22 0.34
-5 2 -14 1.26 0.29
5 2 14 1.93 0.32
-5 2 -14 1.52 0.27
-5 2 -14 2.27 0.3
5 2 14 2.04 0.33
-6 -2 -14 28.97 1.91
-6 -2 -14 33.77 1.89
-6 -2 -14 32.19 2.04
-6 -2 -14 34.31 2.03
-6 2 -14 32.02 2.03
6 2 14 34.65 2.12
-6 2 -14 33.94 2.04
6 2 14 34.68 2.19
-6 2 -14 28.94 2.35
-6 2 -14 33.12 2.08
6 2 14 27.6 2.18
-6 2 -14 36.72 2.09
6 2 14 35.67 2.16
6 2 14 31.57 2.08
5 -3 -14 1.63 0.21
5 -3 -14 1.41 0.18
5 -3 -14 1.28 0.19
5 -3 -14 1.48 0.22
5 3 -14 1.36 0.21
-5 3 14 1.23 0.21
5 3 -14 1.07 0.19
5 3 -14 1.48 0.22
5 3 -14 1.11 0.21
-5 3 14 1.24 0.22
5 3 -14 1.02 0.21
-5 3 14 1.53 0.23
-5 3 14 1.46 0.23
5 3 -14 1.13 0.23
5 3 -14 1.03 0.19
5 3 -14 1.15 0.2
5 3 -14 1.09 0.22
4 -3 -14 12.95 0.92
4 -3 -14 12.14 0.93
4 -3 -14 13.49 0.97
4 3 -14 14.49 1.01
4 3 -14 15.34 0.99
4 3 -14 13.3 0.94
-4 3 14 15.29 1.07
4 3 -14 14 0.94
4 3 -14 14.83 1.05
-4 3 14 14.06 1.04
-4 3 14 13.48 0.96
4 3 -14 15.51 1.02
4 3 -14 13.75 1.03
4 3 -14 15.53 0.96
4 3 -14 12.81 1.01
-4 3 14 15.92 1
-4 3 14 16.2 1.05
4 3 -14 14.23 0.98
4 3 -14 12.41 1.03
3 3 -14 3.33 0.39
3 3 -14 3.8 0.46
3 3 -14 3.7 0.47
-3 3 14 2.93 0.42
3 3 -14 3.07 0.42
3 3 -14 3.46 0.37
3 3 -14 3.26 0.43
-3 3 14 2.88 0.45
3 3 -14 3.23 0.39
3 3 -14 3.73 0.49
3 3 -14 3.73 0.41
3 3 -14 3.71 0.43
3 3 -14 3.65 0.45
3 3 -14 3.1 0.37
-3 3 14 3.42 0.42
3 3 -14 2.37 0.38
3 3 -14 3.31 0.44
-3 3 14 3.67 0.45
-3 3 14 3.58 0.46
3 3 -14 2.86 0.36
2 3 -14 75.44 5.05
2 3 -14 81.72 4.94
2 3 -14 71.9 4.74
2 3 -14 78.51 4.61
-2 3 14 71.99 4.95
2 3 -14 79.17 4.77
-2 3 14 74.82 5.01
2 3 -14 70.64 4.56
2 3 -14 80.44 4.63
2 3 -14 81.02 4.77
-2 3 14 79.03 5.1
-2 3 14 77.27 4.88
2 3 -14 75.61 4.54
2 3 -14 76.23 4.78
2 3 -14 75.12 4.81
2 3 -14 73.81 4.73
2 3 -14 82.98 4.6
-2 3 14 82.11 4.56
2 3 -14 78.36 4.45
2 3 -14 84.52 4.48
-2 3 14 69.86 5.65
2 3 -14 82.24 4.61
-1 3 14 9.65 0.73
1 3 -14 10.48 0.83
1 3 -14 9.71 0.76
-1 3 14 10.65 0.83
1 3 -14 9.91 0.76
1 3 -14 9.51 0.77
1 3 -14 9.99 0.77
-1 3 14 10.2 0.89
-1 3 14 9.3 0.96
1 3 -14 10.14 0.86
1 3 -14 10.03 0.73
1 3 -14 9.91 0.77
1 3 -14 10.58 0.85
1 3 -14 9.87 0.79
1 3 -14 9.69 0.76
1 3 -14 9.33 0.84
1 3 -14 10.96 0.83
1 3 -14 9.35 0.74
1 3 -14 10.64 0.85
-1 3 14 9.56 0.88
1 3 -14 9.23 0.87
-1 3 14 8.72 0.93
1 3 -14 10.5 0.81
1 3 -14 9.96 0.78
0 3 14 26 1.71
0 3 -14 25.45 1.53
0 3 -14 22.4 1.58
0 3 -14 23.38 1.59
0 3 14 20.72 1.87
0 3 -14 26.85 1.62
0 3 14 24.48 1.95
0 3 -14 24.8 1.54
0 3 -14 24.07 1.55
0 3 14 25.29 1.71
0 3 -14 23.45 1.65
0 3 -14 24.33 1.6
0 3 14 23.52 1.57
0 3 14 21.74 1.94
0 3 -14 22.97 1.73
0 3 -14 21.27 1.59
0 3 -14 23.06 1.55
0 3 -14 22.59 1.54
0 3 -14 24.86 1.58
0 3 -14 23.26 1.56
0 3 -14 19.64 1.78
0 3 -14 24.53 1.59
0 3 -14 21.91 1.47
1 3 14 6.67 0.7
-1 3 -14 6.39 0.56
1 3 14 6.51 0.59
-1 3 -14 5.55 0.58
-1 3 -14 6.05 0.57
-1 3 -14 6.56 0.62
1 3 14 6.31 0.56
1 3 14 6 0.72
-1 3 -14 5.41 0.54
-1 3 -14 5.45 0.51
-1 3 -14 5.88 0.54
-1 3 -14 6.39 0.59
-1 3 -14 5.37 0.61
-1 3 -14 6.55 0.56
-1 3 -14 6.55 0.59
-1 3 -14 5.84 0.53
1 3 14 5.6 0.69
1 3 14 5.45 0.6
-1 3 -14 5.93 0.6
-1 3 -14 6.1 0.58
2 3 14 29.77 2.12
-2 3 -14 27.9 1.87
-2 3 -14 29.42 1.84
2 3 14 29.91 1.94
-2 3 -14 27.99 1.87
-2 3 -14 25.07 2.16
-2 3 -14 28.84 1.92
-2 3 -14 29.75 1.86
2 3 14 31.42 2.33
2 3 14 31.76 2.27
-2 3 -14 28.43 1.92
-2 3 -14 30.19 1.93
2 3 14 25.58 1.96
-2 3 -14 32.14 1.82
2 3 14 31.68 2.34
-2 3 -14 24.89 2.07
-3 3 -14 2.19 0.37
-3 3 -14 2.92 0.39
3 3 14 2.38 0.37
-3 3 -14 2.71 0.33
-3 3 -14 3.06 0.36
3 3 14 2.47 0.36
-3 3 -14 2.63 0.38
-3 3 -14 2.05 0.35
-3 3 -14 3.06 0.35
3 3 14 2.93 0.41
-3 3 -14 2.72 0.4
3 3 14 3.14 0.41
3 3 14 2.74 0.39
3 3 14 2.59 0.35
4 3 14 58.82 3.39
4 3 14 58 3.55
-4 3 -14 46.02 3.74
-4 3 -14 56.11 3.29
-4 3 -14 50.72 3.07
-4 3 -14 45.08 3.6
-4 3 -14 53.38 3.21
-4 3 -14 52.22 3.29
-4 3 -14 53.42 3.23
4 3 14 52.72 3.46
4 3 14 54.73 3.85
4 3 14 48.84 3.85
5 3 14 5.96 0.47
-5 3 -14 6.14 0.49
5 3 14 6.15 0.49
-5 3 -14 6.48 0.47
-5 3 -14 6.07 0.46
5 3 14 5.82 0.49
-2 4 14 1.12 0.22
-2 4 14 1.47 0.24
-1 4 14 9.16 0.68
-1 4 14 10.78 0.74
-1 4 14 9.45 0.82
-1 4 14 9.79 0.74
0 4 14 9.31 0.86
0 4 14 9.77 0.75
0 4 14 11.28 0.78
0 4 14 11.14 0.89
-1 4 -14 0.13 0.14
-1 4 -14 0.26 0.14
-1 4 -14 0.41 0.16
1 4 14 0.44 0.17
-1 4 -14 0.29 0.16
1 4 14 0.41 0.14
1 4 14 0.3 0.17
-1 4 -14 0.08 0.16
-1 4 -14 0.29 0.15
7 0 -15 23.5 1.67
7 0 -15 25 1.65
7 0 -15 25.01 1.59
7 0 -15 27.06 1.63
7 0 -15 24.03 1.47
6 0 -15 0.38 0.17
6 0 -15 0.05 0.12
6 0 -15 -0.06 0.11
6 0 -15 0.3 0.13
6 0 -15 0.02 0.15
6 0 -15 -0.02 0.12
6 0 -15 0.24 0.14
5 0 -15 0.35 0.15
5 0 -15 -0.02 0.15
5 0 -15 0.01 0.1
5 0 -15 0.15 0.14
5 0 -15 0.38 0.15
5 0 -15 0.18 0.14
5 0 -15 0.75 0.19
5 0 -15 0.07 0.15
4 0 -15 0.28 0.15
4 0 -15 0.26 0.15
-4 0 15 0.17 0.21
4 0 -15 0.28 0.16
-4 0 15 0.2 0.18
4 0 -15 0 0.15
4 0 -15 0.18 0.13
4 0 -15 -0.05 0.14
-4 0 15 0.04 0.15
4 0 -15 0.17 0.14
-4 0 15 0.1 0.2
4 0 -15 0.05 0.1
-4 0 15 0.21 0.16
-4 0 15 0.25 0.18
-4 0 15 0.39 0.21
-4 0 15 0.08 0.2
4 0 -15 0.01 0.14
3 0 -15 62.34 3.97
3 0 -15 75.26 4
3 0 -15 59.69 3.97
-3 0 15 71.35 5.16
3 0 -15 65.89 4.31
3 0 -15 67.8 4.22
-3 0 15 65.94 5.47
3 0 -15 72.51 3.9
-3 0 15 70.64 5.21
-3 0 15 67.32 5.16
-3 0 15 64.77 4.67
-3 0 15 63.04 5.14
-3 0 15 75.66 5.19
3 0 -15 73.23 4.13
-3 0 15 72.77 5.22
3 0 -15 67.3 5.24
3 0 -15 68.63 3.97
-2 0 15 0.01 0.13
2 0 -15 0.1 0.11
2 0 -15 -0.08 0.1
2 0 -15 0.14 0.12
-2 0 15 0.14 0.15
2 0 -15 0.14 0.12
2 0 -15 -0.03 0.09
-2 0 15 0.12 0.14
2 0 -15 0.14 0.12
-2 0 15 0.17 0.14
-2 0 15 0.04 0.12
2 0 -15 -0.07 0.11
2 0 -15 0.08 0.11
-2 0 15 0.07 0.13
-2 0 15 -0.06 0.13
2 0 -15 -0.04 0.1
-2 0 15 0.18 0.14
2 0 -15 0.19 0.12
-2 0 15 0.02 0.12
1 0 -15 70.98 4.33
1 0 -15 81.58 5.72
-1 0 15 76.73 5.58
1 0 -15 67.29 4.48
-1 0 15 75.56 5.82
-1 0 15 70.34 5.07
-1 0 15 74.14 5.6
-1 0 15 85.09 5.66
1 0 -15 72.55 4.34
1 0 -15 67.59 5.22
-1 0 15 80.27 5.96
1 0 -15 67.75 4.21
1 0 -15 72.81 4.46
1 0 -15 72.32 4.33
1 0 -15 78.36 5.61
-1 0 15 82.12 5.6
-1 0 15 72.65 5.59
-1 0 15 80.99 5.66
1 0 -15 73.43 4.31
1 0 -15 73.55 4.31
0 0 15 0.22 0.13
0 0 15 0.03 0.11
0 0 -15 0.4 0.15
0 0 -15 0 0.12
0 0 -15 0.04 0.1
0 0 -15 0.09 0.11
0 0 -15 0.19 0.12
0 0 15 0.1 0.14
0 0 15 -0.01 0.12
0 0 -15 -0.05 0.12
0 0 -15 0.14 0.1
0 0 -15 0.02 0.09
0 0 15 0.21 0.12
0 0 15 0.13 0.11
0 0 -15 0.07 0.1
0 0 -15 0.09 0.11
0 0 -15 0.08 0.11
0 0 15 0.18 0.13
0 0 -15 -0.03 0.12
1 0 15 13.12 1.11
-1 0 -15 14.6 1.06
-1 0 -15 12.07 0.84
1 0 15 15.63 1.14
1 0 15 13.74 1.19
1 0 15 12.82 1.14
-1 0 -15 13.78 0.86
-1 0 -15 13.26 0.86
-1 0 -15 13.32 1.09
-1 0 -15 14.59 1.14
1 0 15 11.95 1.2
-1 0 -15 13.64 0.84
1 0 15 12.09 1.16
1 0 15 11.45 1.08
-1 0 -15 13.89 0.89
-1 0 -15 12.46 0.83
-1 0 -15 11.07 0.87
-1 0 -15 13.14 0.85
2 0 15 0.19 0.16
-2 0 -15 0.18 0.13
2 0 15 0.3 0.17
-2 0 -15 0.5 0.17
-2 0 -15 0.04 0.13
2 0 15 0.21 0.17
-2 0 -15 0.1 0.15
-2 0 -15 0.17 0.12
-2 0 -15 0.31 0.2
2 0 15 0.18 0.14
2 0 15 0.06 0.09
-2 0 -15 0.19 0.14
-2 0 -15 -0.06 0.12
-2 0 -15 0.13 0.12
2 0 15 0.07 0.11
-2 0 -15 0.03 0.11
-2 0 -15 0.18 0.13
2 0 15 0.26 0.14
-3 0 -15 49.01 2.71
3 0 15 42.49 3.69
-3 0 -15 48.89 2.7
-3 0 -15 47.02 2.82
3 0 15 45.95 3.49
-3 0 -15 49.37 3.48
-3 0 -15 43.81 3.05
-3 0 -15 44.69 2.78
-3 0 -15 43.8 2.84
3 0 15 41.83 3.48
-3 0 -15 42.66 2.66
-3 0 -15 50.38 2.65
3 0 15 38.24 3.58
-4 0 -15 0.13 0.14
-4 0 -15 -0.01 0.22
4 0 15 0.1 0.22
4 0 15 -0.01 0.2
-4 0 -15 0.21 0.15
-4 0 -15 0.25 0.18
4 0 15 -0.01 0.19
-4 0 -15 0.12 0.15
-4 0 -15 0.18 0.13
-4 0 -15 -0.05 0.19
-4 0 -15 0.27 0.15
-4 0 -15 0.28 0.17
-4 0 -15 0.15 0.2
4 0 15 0.04 0.23
5 0 15 85.72 5.32
-5 0 -15 79.08 4.92
-5 0 -15 80.9 4.96
5 0 15 86.95 5.25
5 0 15 84.45 5.11
5 0 15 72.91 5.37
5 0 15 82.29 5.16
-5 0 -15 74.03 4.71
-5 0 -15 81.21 4.62
-5 0 -15 81.04 5.03
5 0 15 77.57 5.31
-5 0 -15 89.11 4.76
-6 0 -15 0.28 0.13
6 0 15 0.07 0.11
6 0 15 0.18 0.12
-6 0 -15 0.21 0.14
-6 0 -15 0.27 0.17
-6 0 -15 -0.03 0.14
-6 0 -15 0.21 0.14
6 0 15 0.3 0.14
6 0 15 0.17 0.14
6 0 15 0.2 0.13
7 0 15 18.59 1.31
7 0 15 18.41 1.3
-7 0 -15 20.53 1.24
-7 0 -15 18.7 1.22
-7 0 -15 17.34 1.16
7 0 15 19.67 1.3
7 0 15 21.07 1.28
-7 0 -15 20.94 1.26
7 -1 -15 4.02 0.35
7 -1 -15 3.56 0.35
7 -1 -15 4.25 0.34
7 -1 -15 3.81 0.31
-7 1 15 4.1 0.36
-7 1 15 3.74 0.37
-7 1 15 4.06 0.36
7 1 -15 4.26 0.37
-7 1 15 4.05 0.33
7 1 -15 4.05 0.36
7 1 -15 4.04 0.36
7 1 -15 3.86 0.32
7 1 -15 3.87 0.37
6 -1 -15 0.24 0.12
6 -1 -15 0.12 0.12
6 -1 -15 0.1 0.11
6 -1 -15 0.12 0.14
6 -1 -15 0.12 0.13
6 1 -15 0 0.11
-6 1 15 0.07 0.14
-6 1 15 0.03 0.15
6 1 -15 0.08 0.14
6 1 -15 0.11 0.14
-6 1 15 0.11 0.14
6 1 -15 0.26 0.18
6 1 -15 0.19 0.16
-6 1 15 0.07 0.12
6 1 -15 0.15 0.14
6 1 -15 -0.12 0.13
-6 1 15 0.16 0.15
6 1 -15 0.08 0.14
5 -1 -15 111.44 6.54
5 -1 -15 109.02 6.74
5 -1 -15 112.25 6.95
5 -1 -15 108.77 6.85
5 -1 -15 122.71 7.12
5 -1 -15 118.68 6.41
5 1 -15 115.67 6.43
5 1 -15 113.06 6.98
5 1 -15 115.33 7.13
5 1 -15 114.75 6.57
5 1 -15 114.41 6.89
5 1 -15 113.24 6.78
-5 1 15 108.35 6.97
5 1 -15 110.71 7.32
4 -1 -15 24.67 1.38
4 -1 -15 20.86 1.84
4 -1 -15 22.96 2.1
4 -1 -15 24.13 1.41
-4 -1 15 21.64 1.93
4 -1 -15 22.68 1.47
4 -1 -15 21.61 1.43
-4 -1 15 19.64 1.8
-4 -1 15 20.18 1.81
-4 -1 15 21.36 1.83
4 -1 -15 22.95 1.44
4 -1 -15 24.54 1.52
-4 -1 15 20.65 1.65
-4 -1 15 22.81 1.85
-4 -1 15 22.34 1.84
4 -1 -15 21.51 1.37
-4 1 15 22.66 1.87
4 1 -15 23.01 1.51
-4 1 15 21.01 1.84
4 1 -15 22.62 1.49
4 1 -15 22.51 1.4
4 1 -15 23.01 1.44
4 1 -15 22.33 1.57
4 1 -15 22 1.42
4 1 -15 23.62 1.55
4 1 -15 25.02 1.49
-4 1 15 20.82 1.84
-4 1 15 21.06 1.83
4 1 -15 20.53 1.4
-3 -1 15 39.66 3.1
3 -1 -15 44.99 2.4
3 -1 -15 41.74 2.37
-3 -1 15 41.71 3.13
3 -1 -15 42.95 2.47
3 -1 -15 41.28 2.57
3 -1 -15 35.42 3.06
3 -1 -15 41.67 2.33
3 -1 -15 42.68 3.57
-3 -1 15 40.44 3.11
-3 -1 15 40.88 3.13
-3 -1 15 37.45 3.07
3 -1 -15 39.46 3.15
-3 -1 15 39.16 2.82
-3 -1 15 39.69 3.29
3 -1 -15 37.05 2.36
3 -1 -15 38.26 2.5
3 1 -15 37.07 2.65
3 1 -15 35.5 2.39
3 1 -15 38.26 2.5
3 1 -15 40.66 2.42
3 1 -15 41.75 2.36
3 1 -15 40.41 2.54
3 1 -15 45.3 2.44
-3 1 15 38.65 3.13
3 1 -15 38.2 2.41
3 1 -15 35.12 2.46
-3 1 15 40.41 3.13
-3 1 15 34.79 3.09
-3 1 15 39.77 3.15
-3 1 15 42.02 3.13
3 1 -15 43.06 2.52
3 1 -15 41.62 2.61
2 -1 -15 1.01 0.22
2 -1 -15 1.26 0.22
-2 -1 15 1.52 0.33
2 -1 -15 1.55 0.31
2 -1 -15 1.32 0.2
-2 -1 15 1.77 0.37
-2 -1 15 1.43 0.32
2 -1 -15 1.35 0.34
2 -1 -15 1.24 0.2
2 -1 -15 1.29 0.29
-2 -1 15 1.23 0.28
-2 -1 15 1.39 0.28
2 -1 -15 1.07 0.21
-2 -1 15 1.2 0.25
-2 -1 15 1.4 0.3
-2 -1 15 1.29 0.28
2 -1 -15 1.18 0.21
2 1 -15 1.18 0.25
2 1 -15 1.28 0.24
2 1 -15 1.39 0.26
2 1 -15 0.53 0.2
-2 1 15 1.37 0.28
2 1 -15 1.41 0.24
-2 1 15 1.29 0.31
2 1 -15 1.26 0.28
2 1 -15 1.51 0.24
2 1 -15 1.31 0.28
2 1 -15 1.22 0.25
2 1 -15 1.61 0.26
2 1 -15 1.96 0.29
-2 1 15 1.32 0.32
2 1 -15 1.72 0.32
-2 1 15 1.05 0.25
-1 -1 15 4.96 0.51
-1 -1 15 5.06 0.46
1 -1 -15 4.8 0.51
-1 -1 15 5.09 0.52
1 -1 -15 4.26 0.45
-1 -1 15 4.49 0.55
-1 -1 15 4.11 0.49
1 -1 -15 4.66 0.51
1 -1 -15 4.48 0.36
-1 -1 15 4.48 0.52
-1 -1 15 4.63 0.48
1 1 -15 4.31 0.42
-1 1 15 4.66 0.51
1 1 -15 4.36 0.42
1 1 -15 3.89 0.39
-1 1 15 5.46 0.51
1 1 -15 3.82 0.37
1 1 -15 4.42 0.38
1 1 -15 4.09 0.38
1 1 -15 4.39 0.4
1 1 -15 4.73 0.43
-1 1 15 4.78 0.52
1 1 -15 4.46 0.43
-1 1 15 4.4 0.5
-1 1 15 3.72 0.5
1 1 -15 4.63 0.42
0 -1 15 2.3 0.32
0 -1 -15 2.01 0.33
0 -1 15 1.93 0.37
0 -1 -15 1.99 0.32
0 -1 -15 2.42 0.37
0 -1 -15 1.7 0.24
0 -1 15 2.06 0.41
0 -1 15 2 0.34
0 -1 -15 2.18 0.31
0 -1 15 2.48 0.34
0 1 -15 1.8 0.28
0 1 -15 1.79 0.29
0 1 15 2.74 0.33
0 1 -15 2.24 0.32
0 1 -15 1.76 0.3
0 1 15 2.4 0.36
0 1 15 2.52 0.33
0 1 -15 1.62 0.25
0 1 -15 2.35 0.31
0 1 -15 1.7 0.27
0 1 -15 2.05 0.32
0 1 -15 2.3 0.3
0 1 -15 2.39 0.31
0 1 15 2.41 0.35
0 1 -15 1.91 0.29
1 -1 15 255.07 18.26
1 -1 15 267.05 19.62
-1 -1 -15 256.31 18.09
-1 -1 -15 255.37 18.27
1 -1 15 255.96 19.38
1 -1 15 251.49 19.01
-1 -1 -15 281.89 17.15
-1 -1 -15 236.18 16.05
1 -1 15 237.92 18.33
1 -1 15 251.26 20.3
-1 1 -15 264.67 14.21
-1 1 -15 233.08 14.77
1 1 15 219.32 15.56
-1 1 -15 262.42 14.71
-1 1 -15 232.25 14.05
-1 1 -15 245.76 13.83
-1 1 -15 256.21 14.15
-1 1 -15 225.2 14.97
1 1 15 218.75 18.22
1 1 15 231.88 19.38
-1 1 -15 250.85 14.18
1 1 15 256.79 18.37
-1 1 -15 237.65 14.15
1 1 15 266.23 18.39
2 -1 15 8.85 0.92
2 -1 15 9.16 0.91
2 -1 15 10.11 0.88
2 -1 15 8.74 0.95
-2 -1 -15 8.57 0.83
-2 -1 -15 9.82 0.8
-2 -1 -15 9.74 0.87
-2 -1 -15 9.52 0.75
2 -1 15 9.44 0.91
-2 1 -15 8.9 0.69
2 1 15 8.18 0.84
-2 1 -15 8.53 0.65
-2 1 -15 10.33 0.73
2 1 15 8.52 0.91
-2 1 -15 9.55 0.7
-2 1 -15 9.32 0.72
-2 1 -15 9.83 0.72
2 1 15 9.87 0.89
-2 1 -15 10.05 0.68
-2 1 -15 9.96 0.69
2 1 15 8.72 0.82
2 1 15 9.92 0.78
2 1 15 8.14 0.84
2 1 15 9.22 0.75
-2 1 -15 9.36 0.68
-3 -1 -15 51.86 3.52
3 -1 15 47.74 4.42
3 -1 15 52.46 4.23
-3 -1 -15 53.27 3.96
3 -1 15 50.2 4
3 -1 15 45.49 4.26
-3 -1 -15 46.13 3.81
-3 -1 -15 48.34 3.73
3 1 15 51.3 4.04
-3 1 -15 57 3.13
-3 1 -15 53.19 3.22
-3 1 -15 57.43 3.13
3 1 15 43.94 3.97
-3 1 -15 52.22 3.29
3 1 15 57.24 3.45
-3 1 -15 49.6 3.22
-3 1 -15 53.68 3.26
3 1 15 58.12 3.53
-3 1 -15 58.06 3.06
3 1 15 49.98 4.24
3 1 15 51.19 3.91
3 1 15 56.85 3.9
3 1 15 58.09 3.6
-4 -1 -15 0.5 0.2
-4 -1 -15 0.24 0.15
4 1 15 0.6 0.22
4 1 15 0.26 0.17
-4 1 -15 0.33 0.19
-4 1 -15 0.37 0.2
-4 1 -15 -0.04 0.15
-4 1 -15 0.55 0.21
4 1 15 0.36 0.18
4 1 15 0.06 0.16
-4 1 -15 0.24 0.16
-4 1 -15 0.49 0.18
-4 1 -15 0.18 0.16
4 1 15 0.21 0.16
4 1 15 0.22 0.16
-5 -1 -15 1.77 0.31
-5 -1 -15 2.86 0.38
-5 -1 -15 2.02 0.27
-5 -1 -15 2.41 0.32
-5 -1 -15 1.91 0.29
5 1 15 2.48 0.36
-5 1 -15 1.91 0.28
-5 1 -15 2.07 0.32
5 1 15 2.55 0.37
5 1 15 2.41 0.36
-5 1 -15 1.67 0.3
5 1 15 1.93 0.31
5 1 15 2.45 0.31
-5 1 -15 1.92 0.3
-5 1 -15 1.97 0.34
6 -1 15 1.99 0.26
6 -1 15 2.38 0.27
6 -1 15 1.62 0.25
-6 -1 -15 2.46 0.32
-6 -1 -15 2.7 0.28
-6 -1 -15 2.07 0.23
-6 -1 -15 2.2 0.25
6 -1 15 2.11 0.26
-6 -1 -15 1.99 0.27
6 -1 15 2.19 0.27
-6 1 -15 2.43 0.33
-6 1 -15 2.14 0.32
-6 1 -15 2.16 0.29
6 1 15 2.44 0.32
-6 1 -15 2.48 0.29
6 1 15 2.27 0.29
6 1 15 2.59 0.35
-6 1 -15 2.39 0.31
6 1 15 2.27 0.27
6 1 15 2.16 0.3
7 -1 15 49.67 3.28
-7 -1 -15 48.99 3.09
-7 -1 -15 48.23 3.05
7 -1 15 51.65 3.14
7 1 15 51.57 3.22
-7 1 -15 50.49 3.1
7 1 15 50.86 3.14
7 1 15 52.05 3.29
-7 1 -15 49.7 3.04
6 -2 -15 3.37 0.28
6 -2 -15 3.13 0.29
6 -2 -15 2.76 0.27
6 -2 -15 3.27 0.3
6 2 -15 3.06 0.3
-6 2 15 3.04 0.31
-6 2 15 3.35 0.36
6 2 -15 3.15 0.34
6 2 -15 2.97 0.31
6 2 -15 2.89 0.32
6 2 -15 2.63 0.31
-6 2 15 3.05 0.32
6 2 -15 3.14 0.32
-6 2 15 3.25 0.33
6 2 -15 2.79 0.3
5 -2 -15 0.53 0.15
5 -2 -15 0.38 0.14
5 -2 -15 0.47 0.17
5 -2 -15 0.48 0.14
5 -2 -15 0.49 0.16
5 2 -15 0.11 0.15
5 2 -15 0.5 0.22
5 2 -15 0.32 0.19
-5 2 15 0.39 0.2
-5 2 15 0.73 0.21
5 2 -15 0.57 0.21
5 2 -15 0.5 0.19
5 2 -15 0.4 0.18
5 2 -15 0.38 0.18
5 2 -15 0.11 0.2
5 2 -15 0.31 0.19
-5 2 15 1.2 0.28
5 2 -15 0.27 0.16
5 2 -15 0.52 0.19
-5 2 15 0.45 0.19
-5 2 15 0.33 0.2
4 -2 -15 7.86 0.59
4 -2 -15 7.87 0.63
4 -2 -15 7.4 0.6
4 -2 -15 6.88 0.56
4 -2 -15 7.4 0.6
4 2 -15 7.51 0.65
4 2 -15 8.2 0.65
4 2 -15 8.11 0.65
-4 2 15 8.92 0.68
4 2 -15 7.59 0.63
4 2 -15 8.61 0.68
-4 2 15 8.35 0.67
4 2 -15 6.5 0.65
-4 2 15 8.19 0.68
4 2 -15 8.86 0.69
4 2 -15 8.74 0.67
4 2 -15 7.28 0.63
4 2 -15 7.19 0.6
4 2 -15 7.63 0.67
-4 2 15 8.98 0.74
-4 2 15 8.12 0.71
-4 2 15 9.41 0.72
4 2 -15 7.79 0.7
3 -2 -15 44.1 3.18
-3 2 15 51.46 3.39
3 2 -15 55.95 3.28
3 2 -15 54.14 3.12
3 2 -15 48.93 3.38
3 2 -15 50.21 3.4
-3 2 15 54.82 3.47
3 2 -15 47.94 3.47
-3 2 15 59.32 3.35
3 2 -15 48.11 3.08
3 2 -15 47.91 3.17
-3 2 15 47.11 3.22
-3 2 15 60.06 3.14
3 2 -15 49.39 3.09
3 2 -15 50.07 3.1
3 2 -15 55.6 3.05
-3 2 15 45.99 3.8
3 2 -15 48.91 3.05
-3 2 15 54.87 3.41
3 2 -15 56.25 3.36
3 2 -15 45.29 3.44
3 2 -15 54.1 3.24
3 2 -15 52.69 3.21
2 -2 -15 0.15 0.19
-2 -2 15 -0.11 0.24
2 -2 -15 0.16 0.19
-2 -2 15 0.46 0.25
-2 -2 15 0.38 0.2
2 -2 -15 0.03 0.21
-2 -2 15 0.38 0.28
2 -2 -15 0.18 0.21
-2 -2 15 0.19 0.24
-2 -2 15 0.17 0.25
-2 -2 15 0.41 0.29
-2 2 15 0.34 0.28
-2 2 15 0.22 0.22
2 2 -15 0.32 0.22
2 2 -15 0.16 0.21
-2 2 15 0.43 0.24
2 2 -15 0.08 0.16
2 2 -15 0.33 0.2
2 2 -15 0.17 0.22
2 2 -15 1.19 0.28
2 2 -15 0.68 0.2
-2 2 15 0.38 0.21
2 2 -15 0.34 0.22
-2 2 15 0.23 0.19
2 2 -15 -0.05 0.17
-2 2 15 0.68 0.31
-2 2 15 0.59 0.25
-2 2 15 0.34 0.24
-2 2 15 0.52 0.24
2 2 -15 0.25 0.22
2 2 -15 1.31 0.28
2 2 -15 0.17 0.2
2 2 -15 0.42 0.21
2 2 -15 0.26 0.24
2 2 -15 0.72 0.25
2 2 -15 0.2 0.21
2 2 -15 0.26 0.21
2 2 -15 0.18 0.22
2 2 -15 0.36 0.22
1 -2 -15 158.8 11.67
-1 -2 15 154.97 12.14
1 -2 -15 151.76 11.85
1 -2 -15 148.93 10.92
1 -2 -15 138.12 11.5
-1 -2 15 147.66 10.57
-1 -2 15 143.52 11.66
-1 -2 15 141.37 11.64
-1 -2 15 144.31 12.34
-1 -2 15 135.72 12.51
-1 -2 15 145.5 12.95
1 2 -15 157.55 9.56
1 2 -15 154.48 9.43
-1 2 15 180.06 10.07
-1 2 15 148.68 11.76
-1 2 15 137.6 11.65
-1 2 15 145.31 11.29
1 2 -15 178.49 9.39
1 2 -15 150.06 9.37
-1 2 15 152.98 11.48
1 2 -15 153.11 9.57
1 2 -15 157.59 10.05
1 2 -15 170.83 9.05
1 2 -15 139.13 9.43
1 2 -15 160.51 9.43
-1 2 15 159.31 8.98
1 2 -15 182.06 9.08
1 2 -15 172.84 9.11
1 2 -15 164.57 8.84
1 2 -15 166.02 8.86
-1 2 15 164.35 11.37
-1 2 15 179.61 9.99
-1 2 15 166.71 9.6
1 2 -15 167.2 9.06
1 2 -15 159.45 9.79
1 2 -15 169.77 9.14
1 2 -15 168.08 9.12
0 -2 15 8.7 0.94
0 -2 15 9.08 0.9
0 -2 15 10.71 1.07
0 -2 -15 8.92 0.88
0 -2 -15 7.97 0.77
0 -2 15 7.91 0.97
0 -2 -15 9.44 0.9
0 -2 15 8.15 0.92
0 -2 -15 9.96 0.85
0 2 15 10.56 0.76
0 2 15 9.04 0.95
0 2 15 10.42 1.01
0 2 -15 10.67 0.8
0 2 15 8.92 0.93
0 2 -15 9.94 0.75
0 2 -15 9.96 0.75
0 2 -15 9.84 0.76
0 2 -15 10.6 0.76
0 2 -15 10.01 0.74
0 2 15 10.15 0.82
0 2 -15 9.89 0.74
0 2 -15 8.76 0.73
0 2 -15 10.53 0.82
0 2 -15 9.44 0.68
0 2 15 11 1
0 2 15 9.05 0.83
0 2 15 8.77 0.94
0 2 -15 10.3 0.78
0 2 15 11.46 0.86
0 2 -15 9.88 0.72
0 2 -15 8.79 0.74
0 2 -15 10.07 0.76
0 2 -15 11.31 0.81
-1 -2 -15 23.92 1.77
-1 -2 -15 22.76 2
-1 -2 -15 22.7 2
-1 -2 -15 23.4 1.89
1 -2 15 23.83 2.02
1 -2 15 23.93 2.27
1 -2 15 24.05 2.11
1 -2 15 21.81 2.19
1 -2 15 22.66 2.3
-1 2 -15 24.31 1.62
1 2 15 27.85 1.77
-1 2 -15 25.28 1.58
-1 2 -15 26.56 1.64
-1 2 -15 29.6 1.65
1 2 15 26.46 1.75
-1 2 -15 25.75 1.65
1 2 15 25.59 1.88
1 2 15 21.91 2.04
1 2 15 22.8 1.74
-1 2 -15 28 1.62
1 2 15 27.32 2.09
-1 2 -15 25.44 1.69
-1 2 -15 27.76 1.73
-1 2 -15 26.28 1.66
1 2 15 22.83 2.07
-1 2 -15 26.39 1.62
1 2 15 28.27 2.07
1 2 15 28.15 2.12
-1 2 -15 24.92 1.68
-1 2 -15 26.91 1.69
2 2 15 9.27 0.81
-2 2 -15 9.47 0.77
-2 2 -15 9.15 0.77
-2 2 -15 10.51 0.78
2 2 15 8.82 0.85
-2 2 -15 8.84 0.7
-2 2 -15 8.34 0.72
2 2 15 9.94 0.94
-2 2 -15 8.47 0.72
-2 2 -15 9.94 0.76
2 2 15 8.35 0.79
-2 2 -15 9.03 0.74
-2 2 -15 8.83 0.72
2 2 15 10.59 0.96
2 2 15 9.34 0.74
2 2 15 9.96 0.89
-3 2 -15 64.83 4.55
-3 2 -15 73.03 4.51
-3 2 -15 69.1 4.45
-3 2 -15 73.13 4.31
3 2 15 72.1 4.84
3 2 15 69.76 5.3
3 2 15 78.7 5.44
-3 2 -15 70.43 4.55
-3 2 -15 67.45 4.42
3 2 15 82.62 4.99
3 2 15 77.8 5.4
-3 2 -15 72.5 4.22
-3 2 -15 74.12 4.32
3 2 15 75.95 4.74
-4 2 -15 0.14 0.19
4 2 15 0.25 0.17
4 2 15 0.2 0.17
-4 2 -15 0.3 0.17
-4 2 -15 0.21 0.18
4 2 15 1.19 0.27
4 2 15 0.08 0.17
-4 2 -15 0.17 0.18
-4 2 -15 0.13 0.2
-4 2 -15 0.38 0.21
-4 2 -15 -0.01 0.19
4 2 15 0.12 0.16
4 2 15 0.11 0.16
-5 -2 -15 56.88 3.96
5 2 15 64.66 4.41
-5 2 -15 71.24 4.08
5 2 15 66.7 4.28
-5 2 -15 66.5 4.04
5 2 15 60.95 4.79
-5 2 -15 64.44 4.14
5 2 15 70.33 4.24
-5 2 -15 71.68 4.13
5 2 15 72.91 4.37
-5 2 -15 64.12 3.87
6 -2 15 1.72 0.21
6 -2 15 1.73 0.2
-6 -2 -15 1.79 0.22
-6 -2 -15 1.82 0.19
-6 -2 -15 2.06 0.22
6 2 15 1.79 0.22
-6 2 -15 1.69 0.24
-6 2 -15 2.17 0.25
6 2 15 1.88 0.23
-6 2 -15 2.1 0.25
-6 2 -15 1.96 0.24
6 2 15 1.77 0.23
5 -3 -15 27.44 1.63
5 -3 -15 29.99 1.6
5 -3 -15 28 1.77
5 3 -15 25.84 1.64
5 3 -15 26.16 1.72
-5 3 15 30.58 1.67
-5 3 15 28.29 1.82
5 3 -15 25.04 1.82
5 3 -15 27.55 1.76
5 3 -15 27.7 1.62
-5 3 15 29.3 1.76
5 3 -15 25.4 1.7
5 3 -15 28.25 1.8
4 -3 -15 1.67 0.23
4 -3 -15 1.98 0.25
4 -3 -15 1.48 0.19
4 -3 -15 1.69 0.23
4 -3 -15 1.27 0.21
-4 3 15 1.84 0.28
-4 3 15 1.41 0.26
4 3 -15 1.63 0.25
4 3 -15 1.37 0.25
-4 3 15 1.9 0.31
4 3 -15 1.46 0.25
4 3 -15 2.17 0.29
4 3 -15 1.48 0.26
4 3 -15 1.13 0.24
4 3 -15 1.39 0.27
4 3 -15 1.72 0.27
4 3 -15 1.39 0.26
4 3 -15 1.56 0.27
-4 3 15 1.71 0.25
-4 3 15 1.37 0.26
3 3 -15 26.04 1.69
3 3 -15 24.2 1.82
-3 3 15 25.84 1.82
3 3 -15 28.11 1.7
3 3 -15 27.28 1.77
-3 3 15 27.99 1.82
3 3 -15 27.01 1.76
3 3 -15 25.81 1.72
-3 3 15 27.64 1.89
3 3 -15 26.19 1.69
3 3 -15 29.48 1.67
-3 3 15 28.5 1.7
3 3 -15 27.4 1.82
3 3 -15 24.37 1.73
-3 3 15 27.74 1.82
3 3 -15 26.7 1.7
3 3 -15 24.38 1.66
-2 3 15 10.13 0.73
2 3 -15 8.5 0.72
2 3 -15 10.01 0.74
2 3 -15 9.89 0.77
2 3 -15 9.04 0.79
2 3 -15 10.7 0.77
2 3 -15 9.34 0.77
2 3 -15 9.35 0.77
-2 3 15 10.95 0.83
-2 3 15 10.62 0.87
2 3 -15 8.88 0.72
2 3 -15 9.11 0.76
2 3 -15 9.26 0.71
-2 3 15 8.88 0.88
2 3 -15 8.88 0.69
2 3 -15 8.81 0.72
2 3 -15 10.24 0.8
2 3 -15 9.63 0.74
2 3 -15 9.98 0.72
-2 3 15 8.83 0.82
1 3 -15 0.28 0.2
1 3 -15 0.54 0.26
1 3 -15 0.07 0.2
1 3 -15 0.32 0.23
1 3 -15 0.35 0.21
1 3 -15 0.14 0.2
1 3 -15 0.13 0.19
1 3 -15 0.35 0.25
-1 3 15 -0.08 0.15
-1 3 15 0.69 0.29
1 3 -15 0.57 0.26
1 3 -15 0.31 0.19
-1 3 15 0.2 0.21
-1 3 15 0.16 0.17
1 3 -15 0.18 0.19
-1 3 15 0.58 0.24
-1 3 15 0.34 0.25
1 3 -15 0.01 0.19
-1 3 15 0.55 0.28
1 3 -15 0.24 0.22
1 3 -15 0 0.18
1 3 -15 0.42 0.21
1 3 -15 0.19 0.2
0 3 -15 1.94 0.32
0 3 -15 1.53 0.34
0 3 -15 2.06 0.35
0 3 -15 1.35 0.3
0 3 15 1.61 0.39
0 3 -15 1.65 0.34
0 3 -15 1.77 0.28
0 3 -15 1.43 0.28
0 3 -15 1.73 0.33
0 3 -15 1.16 0.32
0 3 15 1.57 0.39
0 3 15 2.04 0.39
0 3 15 1.74 0.41
0 3 -15 1.6 0.31
0 3 -15 2.03 0.38
0 3 -15 1.68 0.32
0 3 -15 1.66 0.34
0 3 -15 1.59 0.3
0 3 15 1.88 0.36
0 3 15 1.41 0.27
0 3 -15 1.6 0.3
0 3 -15 2.06 0.4
-1 3 -15 63.11 3.92
-1 3 -15 59.5 3.68
-1 3 -15 58.65 3.85
-1 3 -15 66.61 3.7
1 3 15 68.38 4.7
1 3 15 57.91 4.25
-1 3 -15 59.39 3.71
1 3 15 65.37 4.08
-1 3 -15 68.84 3.81
-1 3 -15 63.63 3.91
1 3 15 63.53 4.71
-1 3 -15 64.12 3.77
1 3 15 62.2 4.08
1 3 15 68.57 4.8
-1 3 -15 57.96 3.95
-1 3 -15 62.44 3.94
-1 3 -15 65.59 3.76
-1 3 -15 58.93 4.36
-2 3 -15 0.15 0.19
2 3 15 0.28 0.2
-2 3 -15 -0.27 0.19
-2 3 -15 0.14 0.19
-2 3 -15 0.3 0.21
2 3 15 0.05 0.14
-2 3 -15 0.26 0.19
2 3 15 0.27 0.22
-2 3 -15 0.24 0.2
-2 3 -15 0.18 0.2
2 3 15 0.11 0.19
-2 3 -15 0.26 0.19
-2 3 -15 0.38 0.21
-2 3 -15 0.13 0.2
2 3 15 0.16 0.21
2 3 15 0.17 0.22
-3 3 -15 54.38 3.16
3 3 15 45.81 3.58
3 3 15 52.23 3.53
3 3 15 62.42 4.08
-3 3 -15 52.81 3.35
3 3 15 52.73 3.98
3 3 15 58.98 4.09
-3 3 -15 51.7 3.43
3 3 15 62.1 3.75
-3 3 -15 53.84 3.43
-3 3 -15 55.83 3.4
-3 3 -15 55.44 3.26
-4 3 -15 4.42 0.41
-4 3 -15 5.1 0.43
4 3 15 5.7 0.48
4 3 15 4.84 0.45
4 3 15 4.69 0.47
-4 3 -15 5.39 0.43
-4 3 -15 4.11 0.46
-4 3 -15 5.03 0.43
-4 3 -15 5.61 0.45
4 3 15 5.53 0.5
4 3 15 5.19 0.45
-1 4 15 42.35 2.73
0 4 15 4.56 0.45
0 4 15 4.31 0.39
7 0 -16 0.01 0.11
7 0 -16 0.11 0.12
7 0 -16 0.07 0.11
7 0 -16 0.1 0.11
-7 0 16 0.17 0.13
7 0 -16 0.16 0.1
6 0 -16 13.6 0.87
6 0 -16 13.49 0.94
6 0 -16 12.86 0.92
6 0 -16 13.18 0.88
6 0 -16 13.25 0.97
5 0 -16 -0.06 0.11
5 0 -16 0.03 0.1
5 0 -16 0.04 0.14
5 0 -16 0.04 0.14
5 0 -16 -0.06 0.14
5 0 -16 0.04 0.14
5 0 -16 0.18 0.14
-4 0 16 311.39 21.82
4 0 -16 286.83 17.69
4 0 -16 317.26 17.93
-4 0 16 292.28 21.81
-4 0 16 294.11 21.94
-4 0 16 248.57 21.8
4 0 -16 340.73 16.87
4 0 -16 341.41 16.5
4 0 -16 323.44 18.3
4 0 -16 316.09 17.42
-4 0 16 257.76 19.75
4 0 -16 296.29 16.79
-4 0 16 261.57 23.1
-4 0 16 259.54 21.76
3 0 -16 0.12 0.14
3 0 -16 0.15 0.12
-3 0 16 0.23 0.16
3 0 -16 0.07 0.14
-3 0 16 0.05 0.15
3 0 -16 0.14 0.13
3 0 -16 0.1 0.12
3 0 -16 0.05 0.13
-3 0 16 0.08 0.15
-3 0 16 -0.13 0.15
-3 0 16 -0.2 0.17
-3 0 16 -0.11 0.16
3 0 -16 0.06 0.12
-3 0 16 0.01 0.17
-3 0 16 0.09 0.17
3 0 -16 0.09 0.12
3 0 -16 0.07 0.13
-3 0 16 -0.01 0.14
2 0 -16 45.6 3.66
-2 0 16 44.25 3.81
2 0 -16 49.16 2.77
2 0 -16 51.1 2.85
-2 0 16 51.63 3.74
-2 0 16 53.36 3.7
-2 0 16 50.15 3.66
-2 0 16 53.65 3.74
-2 0 16 44.87 3.67
2 0 -16 48.32 2.84
2 0 -16 50.16 2.94
2 0 -16 50.75 2.84
2 0 -16 50.22 3.75
2 0 -16 43.96 3.06
2 0 -16 44.57 2.84
-2 0 16 45.36 3.32
-2 0 16 48.57 3.91
2 0 -16 45.25 2.94
-2 0 16 45.81 3.66
1 0 -16 0.07 0.11
-1 0 16 0.46 0.2
-1 0 16 0.14 0.16
-1 0 16 0.1 0.14
1 0 -16 0.04 0.13
1 0 -16 -0.04 0.12
1 0 -16 -0.04 0.11
1 0 -16 -0.01 0.1
1 0 -16 0.1 0.1
1 0 -16 -0.03 0.12
-1 0 16 0.48 0.18
1 0 -16 -0.07 0.12
1 0 -16 0 0.11
-1 0 16 0.13 0.15
-1 0 16 0.19 0.13
1 0 -16 0.01 0.12
-1 0 16 0.06 0.13
1 0 -16 0.01 0.11
0 0 16 86.19 6.55
0 0 -16 79.93 4.64
0 0 -16 82.54 4.77
0 0 -16 81.01 4.94
0 0 -16 84.45 5.77
0 0 16 90.08 6.22
0 0 16 77.58 6.81
0 0 16 78.91 6.14
0 0 16 73.58 6.37
0 0 16 88.79 6.19
0 0 -16 78.97 4.76
0 0 -16 83.38 4.76
0 0 -16 85.36 4.73
0 0 -16 91.52 6.19
0 0 16 86.52 6.14
0 0 -16 70.29 4.71
0 0 -16 78.92 4.89
1 0 16 0.09 0.15
1 0 16 0.04 0.15
-1 0 -16 0.06 0.11
-1 0 -16 -0.02 0.11
-1 0 -16 0.03 0.11
-1 0 -16 -0.07 0.1
-1 0 -16 0.1 0.15
-1 0 -16 0.11 0.16
1 0 16 0.04 0.14
1 0 16 0.08 0.14
-1 0 -16 -0.01 0.11
-1 0 -16 0.14 0.16
-1 0 -16 -0.02 0.13
-1 0 -16 0.01 0.12
-1 0 -16 0.08 0.12
1 0 16 0.03 0.12
1 0 16 0.6 0.2
1 0 16 0.06 0.12
-2 0 -16 267.52 15.72
2 0 16 243.89 21.09
-2 0 -16 283.67 15.74
-2 0 -16 302.81 19.08
2 0 16 286.96 21.57
-2 0 -16 293.98 20.12
-2 0 -16 258.55 16.4
-2 0 -16 238.08 17.82
2 0 16 292.16 20.31
-2 0 -16 277.93 15.74
-2 0 -16 296.85 16.31
-2 0 -16 254.99 15.67
-2 0 -16 287.53 15.37
3 0 16 0.18 0.23
-3 0 -16 0.1 0.14
-3 0 -16 0.15 0.15
-3 0 -16 0.09 0.17
-3 0 -16 0.37 0.18
-3 0 -16 0.14 0.14
3 0 16 0.05 0.16
-3 0 -16 0.08 0.13
3 0 16 0.06 0.2
3 0 16 0.21 0.19
3 0 16 -0.04 0.18
-3 0 -16 0.59 0.18
-3 0 -16 -0.09 0.2
-3 0 -16 0.17 0.14
-4 0 -16 86.17 4.67
-4 0 -16 75.41 4.9
-4 0 -16 75.93 5.04
-4 0 -16 85.51 4.77
-4 0 -16 83.25 4.99
-4 0 -16 83.85 4.78
-5 0 -16 0.14 0.16
-5 0 -16 0.08 0.13
5 0 16 0.25 0.16
-5 0 -16 0.03 0.13
5 0 16 0 0.1
5 0 16 0.06 0.14
5 0 16 0.37 0.16
-5 0 -16 -0.03 0.15
5 0 16 0.34 0.16
5 0 16 0.13 0.13
-5 0 -16 0.2 0.16
-5 0 -16 0.24 0.18
-6 0 -16 17.71 1.17
-6 0 -16 18.55 1.26
6 0 16 20.48 1.32
6 0 16 19.6 1.31
-6 0 -16 20.59 1.29
6 0 16 20.88 1.36
6 0 16 17.76 1.34
6 0 16 20.48 1.37
-6 0 -16 19.81 1.23
-6 0 -16 20.45 1.31
7 0 16 -0.01 0.09
-7 0 -16 0.09 0.11
7 0 16 0.14 0.09
-7 0 -16 0.01 0.1
7 -1 -16 1.26 0.18
7 -1 -16 1.24 0.2
7 -1 -16 1.25 0.2
7 -1 -16 1.25 0.19
7 1 -16 1.34 0.21
7 1 -16 1.25 0.22
-7 1 16 1.34 0.21
7 1 -16 1.13 0.19
7 1 -16 1.34 0.21
7 1 -16 0.94 0.19
-7 1 16 1.58 0.24
-7 1 16 1.55 0.22
-7 1 16 1.33 0.2
6 -1 -16 30.51 1.94
6 -1 -16 31.29 1.83
6 -1 -16 30.22 1.85
6 -1 -16 31.06 1.98
6 -1 -16 32.76 2.03
-6 1 16 33.63 2.09
6 1 -16 29.7 1.87
6 1 -16 31.21 1.85
-6 1 16 28.78 1.98
6 1 -16 33.75 1.99
-6 1 16 32.04 1.88
6 1 -16 32.09 2.05
6 1 -16 30.4 2.08
-6 1 16 28.03 1.97
6 1 -16 30.01 2
-6 1 16 30.26 1.98
5 -1 -16 2.18 0.29
5 -1 -16 2.37 0.29
5 -1 -16 2.68 0.37
5 -1 -16 2.61 0.34
5 -1 -16 1.85 0.27
5 -1 -16 2.52 0.33
5 1 -16 2.36 0.39
5 1 -16 2.19 0.33
5 1 -16 2.01 0.32
-5 1 16 2.64 0.33
5 1 -16 1.88 0.3
5 1 -16 2.19 0.32
5 1 -16 2.38 0.33
5 1 -16 2.18 0.31
5 1 -16 2.08 0.33
4 -1 -16 1.7 0.26
4 -1 -16 1.07 0.2
4 -1 -16 0.72 0.18
4 -1 -16 1.24 0.25
4 -1 -16 0.86 0.19
4 -1 -16 0.85 0.21
4 1 -16 0.58 0.23
4 1 -16 0.51 0.21
4 1 -16 0.92 0.21
4 1 -16 0.56 0.21
4 1 -16 0.7 0.21
4 1 -16 0.79 0.25
4 1 -16 0.62 0.21
4 1 -16 0.77 0.24
4 1 -16 1.06 0.24
-3 -1 16 0.23 0.16
3 -1 -16 0.28 0.15
3 -1 -16 0.32 0.14
-3 -1 16 0.3 0.25
3 -1 -16 0.03 0.14
3 -1 -16 0.36 0.15
3 -1 -16 0.22 0.18
3 -1 -16 0.06 0.19
-3 -1 16 0.28 0.25
3 -1 -16 0.35 0.14
3 -1 -16 0.11 0.12
-3 -1 16 0.3 0.17
3 -1 -16 0.11 0.13
-3 -1 16 0.21 0.18
-3 -1 16 0.39 0.24
-3 -1 16 0.25 0.23
3 -1 -16 0.14 0.13
-3 -1 16 0.01 0.17
3 -1 -16 -0.09 0.11
3 1 -16 0.26 0.16
-3 1 16 0.17 0.15
-3 1 16 0.04 0.21
3 1 -16 0.05 0.14
3 1 -16 0 0.14
3 1 -16 0.13 0.18
3 1 -16 0.19 0.16
-3 1 16 0.17 0.18
3 1 -16 0.13 0.17
3 1 -16 0.15 0.16
3 1 -16 0.15 0.17
-3 1 16 0.04 0.17
3 1 -16 0.04 0.14
3 1 -16 0.25 0.18
-2 -1 16 165.61 11.39
2 -1 -16 173.62 14.38
-2 -1 16 164.2 12.6
-2 -1 16 193.47 13.11
2 -1 -16 162.56 9.71
-2 -1 16 168.24 12.58
2 -1 -16 184.66 9.69
2 -1 -16 185.78 10.02
2 -1 -16 180.86 9.67
2 -1 -16 171.86 12.55
2 -1 -16 177.24 9.47
2 -1 -16 159.26 10.48
-2 -1 16 171.13 12.63
2 -1 -16 166.54 9.69
-2 -1 16 158.61 12.52
-2 -1 16 160.2 12.54
2 1 -16 171.95 9.74
2 1 -16 174.31 9.7
2 1 -16 161.68 9.75
2 1 -16 165.6 10.52
2 1 -16 155.34 10.08
-2 1 16 157.68 12.62
2 1 -16 180.23 9.5
2 1 -16 151.83 9.71
-2 1 16 155.95 12.61
2 1 -16 174.33 9.71
2 1 -16 178.51 10.06
-2 1 16 166.22 12.56
-2 1 16 176.53 12.57
1 -1 -16 0.07 0.12
1 -1 -16 0.25 0.16
-1 -1 16 0.2 0.18
-1 -1 16 0.22 0.16
-1 -1 16 0.47 0.22
1 -1 -16 0.33 0.15
-1 -1 16 0.2 0.21
-1 -1 16 0.16 0.16
1 -1 -16 0.2 0.16
1 -1 -16 0.42 0.13
-1 -1 16 0.12 0.17
1 -1 -16 0.35 0.19
1 -1 -16 -0.09 0.12
-1 -1 16 0.29 0.19
1 -1 -16 0.25 0.14
-1 -1 16 0.32 0.18
1 -1 -16 0.49 0.15
1 -1 -16 0.3 0.15
-1 1 16 0.4 0.22
-1 1 16 0.6 0.2
-1 1 16 0.29 0.19
1 1 -16 0.39 0.19
1 1 -16 0.26 0.18
-1 1 16 0.39 0.2
1 1 -16 0.49 0.17
1 1 -16 0.17 0.15
1 1 -16 0.18 0.16
1 1 -16 0.19 0.17
1 1 -16 0.41 0.16
1 1 -16 0.25 0.17
-1 1 16 0.14 0.16
1 1 -16 0.39 0.17
1 1 -16 0.55 0.18
1 1 -16 0.44 0.18
0 -1 -16 83.58 6.74
0 -1 16 89.96 7.41
0 -1 -16 85.42 5.28
0 -1 16 96.91 7.06
0 -1 -16 81.47 5.09
0 -1 16 89.12 6.67
0 -1 -16 84.46 6.55
0 -1 16 90.58 6.93
0 -1 -16 93.57 6.24
0 -1 -16 95.44 6.66
0 -1 16 92.55 6.65
0 -1 -16 84.3 5.13
0 1 -16 86.54 5.3
0 1 -16 86.9 5.03
0 1 -16 81.11 5.11
0 1 16 87.95 6.64
0 1 -16 81.91 5.36
0 1 16 98 6.71
0 1 16 81.39 7.04
0 1 16 84.93 6.69
0 1 -16 91.15 5.36
0 1 -16 98.96 5.18
0 1 -16 84.93 5.14
0 1 -16 89.11 5.17
0 1 -16 92.67 5.14
0 1 -16 92.84 5.19
-1 -1 -16 9.47 0.8
1 -1 16 8.42 0.84
1 -1 16 8.46 0.84
-1 -1 -16 7.26 0.59
-1 -1 -16 7.58 0.67
-1 -1 -16 9.05 0.76
1 -1 16 7.45 0.76
1 -1 16 9.27 0.82
1 -1 16 8.15 0.9
1 -1 16 8.35 0.88
-1 -1 -16 8.35 0.79
-1 1 -16 8.7 0.63
-1 1 -16 8.71 0.65
-1 1 -16 7.66 0.66
1 1 16 7.52 0.65
-1 1 -16 8.89 0.67
-1 1 -16 9.56 0.66
1 1 16 8.94 0.83
-1 1 -16 9.53 0.65
1 1 16 9.05 0.82
-1 1 -16 8.55 0.64
-1 1 -16 8.73 0.68
-1 1 -16 8.25 0.62
1 1 16 7.56 0.78
2 -1 16 29.16 2.27
-2 -1 -16 26.07 2.21
2 -1 16 30.73 2.36
-2 -1 -16 26.2 1.96
2 -1 16 28.24 2.38
-2 -1 -16 28.26 2.1
2 -1 16 26.48 2.41
2 -1 16 24.26 2.52
2 -1 16 29.16 2.5
-2 -1 -16 30.1 2.24
2 1 16 26.25 2.38
2 1 16 29.3 1.98
2 1 16 25.74 2.23
-2 1 -16 31.39 1.78
-2 1 -16 28.09 1.76
-2 1 -16 28.3 1.74
-2 1 -16 32.47 1.84
-2 1 -16 30.28 1.73
2 1 16 29.57 2.22
2 1 16 27.84 2.16
-2 1 -16 26.22 1.72
-2 1 -16 28.63 1.83
-2 1 -16 26.56 1.84
2 1 16 27.43 2.27
2 1 16 29.14 2.26
3 -1 16 0.18 0.2
-3 -1 -16 0.15 0.18
-3 -1 -16 -0.02 0.21
3 -1 16 0.58 0.32
3 -1 16 0.12 0.21
-3 -1 -16 0.09 0.12
3 -1 16 0.09 0.22
3 -1 16 -0.08 0.18
3 -1 16 0.12 0.21
-3 -1 -16 0.25 0.15
3 -1 16 0.12 0.22
-3 -1 -16 0.2 0.19
3 1 16 0.16 0.16
3 1 16 0.02 0.15
3 1 16 0.27 0.24
-3 1 -16 0.14 0.17
3 1 16 0.09 0.16
-3 1 -16 0.02 0.16
-3 1 -16 0.11 0.18
-3 1 -16 -0.09 0.14
-3 1 -16 0.31 0.18
3 1 16 0.07 0.16
3 1 16 0.05 0.2
3 1 16 0.05 0.14
-3 1 -16 0.04 0.16
3 1 16 0.13 0.2
3 1 16 0.14 0.16
-3 1 -16 0.07 0.16
-4 -1 -16 92.67 6.67
-4 -1 -16 111.91 6.33
-4 -1 -16 114.86 6.35
-4 -1 -16 110.99 6.19
-4 -1 -16 109.79 6.61
-4 -1 -16 106.56 6.54
-4 1 -16 102.56 6.58
-4 1 -16 111.31 6.2
-4 1 -16 105.71 6.33
4 1 16 107.55 7.9
4 1 16 115.17 7.26
4 1 16 96.02 6.79
-4 1 -16 116.62 6.37
-4 1 -16 107.93 6.73
4 1 16 114.24 7.13
-4 1 -16 111.9 6.64
4 1 16 114.48 7
4 1 16 119.38 6.94
-5 -1 -16 4.81 0.41
-5 -1 -16 4.75 0.4
-5 -1 -16 4.92 0.45
-5 -1 -16 4.51 0.44
-5 -1 -16 4.85 0.43
5 1 16 5.97 0.51
-5 1 -16 4.68 0.41
-5 1 -16 5.63 0.49
5 1 16 4.88 0.45
-5 1 -16 4.78 0.47
5 1 16 4.78 0.48
5 1 16 4.99 0.48
5 1 16 5.57 0.48
-5 1 -16 5.15 0.45
-5 1 -16 5.02 0.46
-6 -1 -16 55.88 3.28
-6 -1 -16 59.17 3.52
6 -1 16 54.68 3.78
6 -1 16 56.03 3.76
-6 -1 -16 59.28 3.37
6 -1 16 48.21 3.81
-6 -1 -16 54.26 3.56
6 -1 16 62.05 3.72
6 -1 16 62.75 3.64
-6 1 -16 56.73 3.37
6 1 16 59.42 3.67
-6 1 -16 62.19 3.6
-6 1 -16 59.71 3.52
-6 1 -16 50.35 3.58
6 1 16 56.58 3.62
6 1 16 59.3 3.72
-6 1 -16 63.61 3.55
6 1 16 61.17 3.79
6 -2 -16 4.84 0.41
6 -2 -16 4.77 0.37
6 -2 -16 5.19 0.37
6 -2 -16 4.7 0.39
-6 2 16 5.34 0.41
6 2 -16 5.1 0.43
6 2 -16 5.38 0.42
6 2 -16 5.22 0.4
6 2 -16 5.05 0.4
-6 2 16 5.84 0.46
-6 2 16 5.06 0.42
-6 2 16 5.42 0.42
6 2 -16 4.33 0.42
6 2 -16 5.01 0.44
5 -2 -16 0.28 0.13
5 -2 -16 0.39 0.16
5 -2 -16 0.64 0.17
5 -2 -16 0.46 0.14
5 -2 -16 0.42 0.14
5 2 -16 0.09 0.16
-5 2 16 0.25 0.17
-5 2 16 0.43 0.19
-5 2 16 0.55 0.21
5 2 -16 0.34 0.17
5 2 -16 0.35 0.18
5 2 -16 0.37 0.18
5 2 -16 0.31 0.16
-5 2 16 0.29 0.18
5 2 -16 0.42 0.19
-5 2 16 0.43 0.19
5 2 -16 0.29 0.18
5 2 -16 0.3 0.2
5 2 -16 0.34 0.16
4 -2 -16 65.79 4.52
4 -2 -16 71.58 4.64
4 -2 -16 66.98 4.25
4 -2 -16 77.44 4.21
4 -2 -16 74.37 4.3
4 -2 -16 72.39 4.43
4 2 -16 78.25 4.72
4 2 -16 65.28 4.79
-4 2 16 76.09 4.81
-4 2 16 81.9 4.8
4 2 -16 75.56 4.5
-4 2 16 78.93 4.64
4 2 -16 79.44 4.27
4 2 -16 76.29 4.36
4 2 -16 74.06 4.53
4 2 -16 80.09 4.62
-4 2 16 72.65 4.53
4 2 -16 68.49 4.31
-4 2 16 72.41 4.72
4 2 -16 71.88 4.33
4 2 -16 64.59 4.77
4 2 -16 71.81 4.32
-4 2 16 83.75 4.37
3 -2 -16 2.1 0.28
3 -2 -16 2.55 0.33
3 -2 -16 2.86 0.35
3 -2 -16 1.66 0.26
-3 2 16 2.85 0.44
3 2 -16 1.82 0.33
3 2 -16 2.64 0.37
3 2 -16 2.28 0.36
3 2 -16 1.74 0.32
-3 2 16 2.37 0.42
3 2 -16 2.64 0.35
3 2 -16 2.18 0.4
-3 2 16 2.61 0.43
3 2 -16 2.62 0.37
3 2 -16 2.55 0.41
-3 2 16 2.2 0.43
-3 2 16 3.1 0.44
3 2 -16 2.19 0.38
3 2 -16 2.29 0.37
3 2 -16 2.21 0.36
-3 2 16 2.31 0.39
3 2 -16 2.96 0.46
3 2 -16 2.17 0.35
2 -2 -16 4.07 0.41
-2 2 16 5.55 0.57
-2 2 16 6.2 0.64
2 2 -16 6.3 0.56
2 2 -16 4.54 0.47
-2 2 16 4.17 0.55
2 2 -16 3.86 0.46
2 2 -16 4.5 0.46
-2 2 16 5 0.48
-2 2 16 4.72 0.55
2 2 -16 4.43 0.49
2 2 -16 4.08 0.43
2 2 -16 5.3 0.54
2 2 -16 6.05 0.51
-2 2 16 5.08 0.52
-2 2 16 4.11 0.49
2 2 -16 5.39 0.52
2 2 -16 4.75 0.46
2 2 -16 4.65 0.43
2 2 -16 4.68 0.46
2 2 -16 3.64 0.45
2 2 -16 4.8 0.49
2 2 -16 4.54 0.49
1 -2 -16 3.23 0.49
-1 -2 16 2.83 0.61
1 -2 -16 2.03 0.4
1 -2 -16 2.76 0.48
1 2 -16 3.77 0.46
1 2 -16 3.22 0.46
1 2 -16 3.52 0.4
1 2 -16 3.76 0.41
-1 2 16 1.99 0.44
1 2 -16 3.37 0.42
-1 2 16 3.19 0.36
1 2 -16 3.66 0.49
-1 2 16 3.16 0.47
-1 2 16 3.75 0.62
-1 2 16 3.43 0.57
1 2 -16 3.08 0.41
-1 2 16 3.39 0.5
1 2 -16 3.37 0.38
-1 2 16 3.5 0.47
-1 2 16 3.47 0.41
1 2 -16 3.6 0.49
1 2 -16 3.3 0.41
1 2 -16 3.12 0.37
-1 2 16 2.75 0.6
1 2 -16 3.63 0.38
1 2 -16 3.37 0.44
1 2 -16 3.87 0.43
1 2 -16 3.89 0.49
0 -2 16 5.93 0.7
0 -2 16 4.49 0.64
0 -2 -16 5.55 0.63
0 -2 16 4.69 0.74
0 -2 -16 4.57 0.61
0 -2 -16 6.02 0.62
0 -2 16 4.27 0.69
0 2 16 6.95 0.74
0 2 -16 6.55 0.52
0 2 -16 6.1 0.55
0 2 -16 6.42 0.55
0 2 -16 5.8 0.49
0 2 16 6.4 0.54
0 2 16 7.02 0.63
0 2 -16 6.23 0.55
0 2 16 4.7 0.68
0 2 16 7.44 0.62
0 2 -16 6.73 0.55
0 2 -16 7.03 0.56
0 2 -16 6.4 0.55
0 2 16 5.92 0.7
0 2 16 5.68 0.6
0 2 -16 6.84 0.59
0 2 16 6.36 0.74
0 2 -16 6.61 0.6
0 2 -16 5.91 0.6
0 2 16 4.92 0.66
0 2 -16 6.37 0.53
0 2 -16 5.9 0.56
-1 2 -16 6.39 0.59
1 2 16 6.35 0.57
-1 2 -16 6.77 0.57
-1 2 -16 5.63 0.55
1 2 16 5.58 0.64
1 2 16 7.53 0.77
-1 2 -16 6.57 0.6
-1 2 -16 6.03 0.56
1 2 16 7.32 0.74
-1 2 -16 6.68 0.57
1 2 16 5.04 0.57
1 2 16 7.22 0.61
1 2 16 6.59 0.75
-1 2 -16 5.9 0.57
-1 2 -16 5.52 0.52
-1 2 -16 6.48 0.62
-1 2 -16 6.17 0.58
-2 2 -16 111.69 6.47
-2 2 -16 115.38 6.49
-2 2 -16 102.41 6.68
-2 2 -16 114.38 6.33
-2 2 -16 107.46 6.44
2 2 16 106.83 7.05
2 2 16 110.84 8.04
2 2 16 123.93 8.15
-2 2 -16 103.58 6.81
-2 2 -16 108.74 6.75
2 2 16 124.42 8.22
-2 2 -16 112.61 6.7
2 2 16 121.91 7.45
-2 2 -16 92.71 6.84
2 2 16 109.64 7
-3 2 -16 14.8 1.07
3 2 16 14.3 1.25
-3 2 -16 15.32 1.07
-3 2 -16 13.21 1.08
-3 2 -16 16.42 1.13
-3 2 -16 14.64 1.08
3 2 16 15.99 1.2
3 2 16 15.96 1.34
-3 2 -16 15.17 1.12
3 2 16 17.78 1.21
-3 2 -16 15.65 1.06
3 2 16 16.84 1.33
3 2 16 16.37 1.25
-3 2 -16 16.15 1.05
-4 -2 -16 24.92 1.72
4 2 16 32.37 2
-4 2 -16 28.48 1.9
-4 2 -16 30.27 1.81
4 2 16 31.6 2.04
4 2 16 25.66 1.94
-4 2 -16 29.05 1.86
4 2 16 28.91 2.22
4 2 16 29.25 2.22
4 2 16 30.78 2.07
-4 2 -16 30.35 1.9
-4 2 -16 29.56 1.75
-4 2 -16 26.31 1.88
-5 -2 -16 3.29 0.3
-5 -2 -16 3.67 0.33
-5 -2 -16 2.84 0.29
-5 -2 -16 3.37 0.33
-5 -2 -16 3.47 0.3
5 2 16 3.28 0.37
5 2 16 3.17 0.36
5 2 16 3.16 0.34
-5 2 -16 3.6 0.33
-5 2 -16 3.47 0.36
5 2 16 3.37 0.35
5 2 16 3.26 0.35
-5 2 -16 3.67 0.34
-5 2 -16 3.11 0.34
-5 2 -16 3.93 0.37
6 -2 16 2.78 0.25
6 -2 16 2.34 0.26
-6 -2 -16 3.19 0.25
-6 2 -16 2.89 0.28
6 2 16 2.83 0.27
-6 2 -16 3.07 0.27
5 -3 -16 2.09 0.2
5 3 -16 2.07 0.24
-5 3 16 2.71 0.25
5 3 -16 2.18 0.25
5 3 -16 2.44 0.25
4 -3 -16 1.45 0.21
4 -3 -16 2.22 0.24
4 -3 -16 1.69 0.2
4 -3 -16 1.96 0.22
4 -3 -16 1.39 0.19
4 3 -16 1.84 0.25
4 3 -16 1.91 0.24
4 3 -16 1.55 0.25
-4 3 16 2.1 0.29
-4 3 16 2.06 0.29
4 3 -16 1.46 0.24
4 3 -16 1.92 0.25
-4 3 16 1.53 0.24
4 3 -16 1.49 0.25
4 3 -16 1.86 0.25
4 3 -16 1.65 0.26
-4 3 16 1.74 0.28
4 3 -16 1.89 0.27
-4 3 16 2.38 0.32
3 -3 -16 1.66 0.25
3 -3 -16 2.1 0.27
3 -3 -16 1.55 0.24
3 3 -16 2.05 0.3
-3 3 16 2.34 0.4
3 3 -16 2.54 0.34
-3 3 16 2.4 0.35
3 3 -16 1.83 0.3
3 3 -16 2.03 0.3
-3 3 16 2.02 0.3
3 3 -16 2.05 0.31
-3 3 16 1.79 0.29
3 3 -16 2.05 0.34
-3 3 16 2.35 0.38
3 3 -16 1.66 0.28
3 3 -16 1.94 0.29
3 3 -16 2.58 0.33
3 3 -16 1.96 0.32
3 3 -16 2.41 0.33
2 3 -16 50.85 2.84
2 3 -16 47.17 2.93
2 3 -16 44.5 2.87
2 3 -16 51.43 3.04
2 3 -16 47.87 2.91
2 3 -16 45.13 2.99
-2 3 16 50.7 3.27
-2 3 16 45.15 3.6
-2 3 16 52.24 3.12
2 3 -16 46.39 2.82
2 3 -16 43.15 3.03
-2 3 16 50.75 3.23
2 3 -16 46.35 3.12
2 3 -16 48.68 2.94
2 3 -16 53.05 2.93
2 3 -16 47.85 3.05
2 3 -16 50.59 2.93
-2 3 16 52.12 2.89
-1 3 16 0.32 0.2
-1 3 16 0.38 0.23
-1 3 16 0.6 0.27
1 3 -16 0.58 0.21
1 3 -16 0.38 0.23
1 3 -16 0.01 0.18
1 3 -16 0.59 0.21
1 3 -16 0.36 0.22
-1 3 16 0.38 0.23
1 3 -16 0.39 0.23
1 3 -16 0.3 0.2
1 3 -16 0.2 0.18
1 3 -16 0.18 0.18
-1 3 16 0.28 0.21
1 3 -16 0.11 0.18
1 3 -16 0.19 0.19
1 3 -16 0.39 0.23
1 3 -16 0.58 0.24
1 3 -16 0.27 0.19
-1 3 16 0.13 0.17
0 3 -16 40.18 2.84
0 3 -16 42.79 2.78
0 3 -16 43.09 2.82
0 3 -16 44.12 2.76
0 3 -16 43.09 2.72
0 3 -16 42.83 2.84
0 3 -16 51.1 2.78
0 3 16 42.91 3.47
0 3 16 39.31 3.36
0 3 16 50.3 3.02
0 3 16 43.25 2.82
0 3 -16 44.46 2.78
0 3 -16 47.14 2.89
0 3 -16 46.44 2.7
0 3 -16 44.36 2.68
0 3 16 47.96 3.01
0 3 16 48.03 3.45
0 3 -16 50.83 2.75
-1 3 -16 16.49 1.1
1 3 16 16.05 1.28
1 3 16 18.79 1.24
1 3 16 18.16 1.44
-1 3 -16 18.36 1.15
-1 3 -16 15.99 1.14
1 3 16 16.5 1.44
1 3 16 16.69 1.2
-1 3 -16 17.32 1.14
-1 3 -16 16.99 1.19
-1 3 -16 17.07 1.2
-1 3 -16 16.01 1.15
-1 3 -16 16.02 1.17
-1 3 -16 16.33 1.18
-1 3 -16 17.31 1.17
1 3 16 18.27 1.49
-2 3 -16 0.28 0.18
2 3 16 0.45 0.23
2 3 16 -0.07 0.17
2 3 16 0 0.13
2 3 16 0.48 0.19
2 3 16 0.08 0.19
-2 3 -16 0.7 0.23
-2 3 -16 0.26 0.18
-2 3 -16 0.3 0.21
-2 3 -16 0.12 0.18
-2 3 -16 0.38 0.19
-2 3 -16 0.05 0.19
2 3 16 0.11 0.17
-2 3 -16 0.19 0.17
-2 3 -16 -0.08 0.17
-2 3 -16 0.37 0.2
-3 3 -16 0.49 0.19
-3 3 -16 0.31 0.18
3 3 16 0.11 0.16
-3 3 -16 0.13 0.16
-3 3 -16 0.14 0.15
-3 3 -16 0.07 0.17
3 3 16 0.31 0.19
3 3 16 0.22 0.15
3 3 16 0.45 0.17
-3 3 -16 0.22 0.17
-3 3 -16 0.3 0.18
3 3 16 0.33 0.19
-4 3 -16 32.27 2.01
-4 3 -16 32.95 2.05
4 3 16 34.98 2.22
-4 3 -16 31.2 2.02
4 3 16 32.21 2.4
4 3 16 32.55 2.11
-4 3 -16 31.66 2.05
7 0 -17 28.04 1.63
7 0 -17 26.81 1.74
-7 0 17 25.29 1.75
7 0 -17 30.07 1.78
7 0 -17 29.69 1.82
6 0 -17 0.2 0.13
6 0 -17 0.16 0.14
6 0 -17 0.12 0.11
6 0 -17 0.04 0.13
6 0 -17 0.03 0.12
6 0 -17 0 0.13
5 0 -17 0.49 0.19
5 0 -17 0.29 0.17
5 0 -17 0.89 0.22
5 0 -17 0.52 0.17
5 0 -17 0.27 0.15
5 0 -17 0.09 0.12
5 0 -17 0.37 0.16
4 0 -17 0.31 0.14
4 0 -17 0.31 0.15
4 0 -17 0.18 0.17
4 0 -17 0.33 0.18
4 0 -17 0.18 0.15
4 0 -17 0.26 0.14
4 0 -17 0.11 0.14
-3 0 17 2.69 0.36
3 0 -17 1.98 0.29
-3 0 17 1.46 0.34
-3 0 17 1.77 0.36
-3 0 17 1.72 0.35
3 0 -17 1.57 0.25
3 0 -17 1.71 0.27
3 0 -17 1.45 0.24
3 0 -17 1.76 0.24
-3 0 17 1.15 0.31
3 0 -17 1.23 0.23
3 0 -17 1.74 0.27
-3 0 17 1.75 0.37
3 0 -17 1.32 0.23
-2 0 17 0.02 0.16
-2 0 17 0.03 0.16
-2 0 17 0 0.13
2 0 -17 0.09 0.13
2 0 -17 0 0.15
2 0 -17 0.03 0.15
-2 0 17 0.08 0.19
2 0 -17 0.02 0.12
2 0 -17 0.03 0.12
2 0 -17 -0.01 0.12
2 0 -17 -0.04 0.11
2 0 -17 0 0.13
2 0 -17 0.07 0.12
-2 0 17 -0.06 0.17
-2 0 17 0.04 0.16
-2 0 17 -0.02 0.15
-2 0 17 0.02 0.16
1 0 -17 167.72 9.9
-1 0 17 155.87 14.17
1 0 -17 184.83 10.21
-1 0 17 171.6 13.56
-1 0 17 185.69 12.87
-1 0 17 185.15 12.89
1 0 -17 174.96 10.26
1 0 -17 180.48 9.89
1 0 -17 182.93 9.85
-1 0 17 175.48 12.76
-1 0 17 161.55 13.27
1 0 -17 181.3 9.92
-1 0 17 165.1 12.76
1 0 -17 154.33 9.62
1 0 -17 177 9.86
1 0 -17 178.05 12.79
1 0 -17 156.12 11.95
0 0 17 0.44 0.21
0 0 17 -0.01 0.11
0 0 -17 0.11 0.11
0 0 -17 0.06 0.12
0 0 -17 -0.04 0.13
0 0 -17 0.08 0.13
0 0 -17 0.01 0.11
0 0 -17 0.19 0.13
0 0 -17 0 0.11
0 0 -17 0.11 0.14
0 0 17 0.78 0.2
0 0 -17 -0.07 0.12
0 0 -17 0.07 0.17
0 0 17 -0.15 0.14
0 0 -17 0.07 0.15
0 0 17 0.08 0.17
0 0 17 -0.01 0.15
-1 0 -17 59.21 3.24
1 0 17 57.72 4.44
-1 0 -17 53.58 3.18
-1 0 -17 53.29 4.11
1 0 17 52.69 4.17
-1 0 -17 57.64 3.24
-1 0 -17 55.72 3.21
1 0 17 50.23 4.31
-1 0 -17 53.31 3.15
-1 0 -17 55.99 3.22
1 0 17 46.2 4.57
1 0 17 53.54 4.17
1 0 17 55.75 4.2
-1 0 -17 58.53 3.93
-1 0 -17 57.59 3.35
2 0 17 0.19 0.17
-2 0 -17 0.23 0.17
-2 0 -17 -0.15 0.2
-2 0 -17 0.12 0.13
2 0 17 0.14 0.19
-2 0 -17 0.13 0.18
-2 0 -17 0.18 0.14
-2 0 -17 -0.03 0.13
-2 0 -17 0.18 0.14
-2 0 -17 0.03 0.19
-2 0 -17 0.31 0.17
2 0 17 0.17 0.22
2 0 17 0.1 0.15
-2 0 -17 -0.01 0.12
-2 0 -17 0.09 0.16
2 0 17 0.1 0.18
3 0 17 0.17 0.19
-3 0 -17 0.41 0.27
-3 0 -17 0.15 0.15
-3 0 -17 0.67 0.23
-3 0 -17 1.62 0.25
-3 0 -17 0.15 0.14
-3 0 -17 0.25 0.15
-3 0 -17 0.16 0.18
-3 0 -17 -0.03 0.15
3 0 17 0.66 0.31
-3 0 -17 0.13 0.15
4 0 17 -0.02 0.14
-4 0 -17 -0.03 0.17
4 0 17 0.13 0.14
-4 0 -17 0.17 0.17
-4 0 -17 0.08 0.14
-4 0 -17 0.11 0.15
-4 0 -17 0.13 0.15
-4 0 -17 0.09 0.16
-4 0 -17 -0.04 0.16
5 0 17 95.64 6.05
-5 0 -17 99.47 5.5
-5 0 -17 102.48 5.9
5 0 17 100.4 6.13
-5 0 -17 105.26 5.65
5 0 17 101.67 6.32
5 0 17 99.29 6.21
-5 0 -17 90.5 5.6
5 0 17 82.69 6.38
-5 0 -17 94.87 5.96
6 0 17 0.1 0.11
6 0 17 0.19 0.11
-6 0 -17 0.14 0.12
-6 0 -17 0.09 0.12
-6 0 -17 0.15 0.14
6 0 17 0.12 0.11
6 0 17 0.17 0.12
-6 0 -17 0.17 0.12
6 0 17 0.03 0.1
-6 0 -17 0.26 0.14
7 -1 -17 0.32 0.13
7 -1 -17 0.5 0.14
7 -1 -17 0.51 0.11
-7 1 17 0.76 0.16
-7 1 17 0.28 0.12
-7 1 17 0.43 0.13
7 1 -17 0.5 0.14
7 1 -17 0.52 0.14
7 1 -17 0.35 0.12
7 1 -17 0.19 0.12
6 -1 -17 1.22 0.2
6 -1 -17 1.61 0.22
6 -1 -17 1.25 0.2
6 -1 -17 1.46 0.24
6 -1 -17 1.67 0.25
-6 1 17 1.83 0.25
6 1 -17 1.1 0.21
6 1 -17 1 0.22
-6 1 17 1.46 0.24
-6 1 17 1.6 0.24
6 1 -17 1.07 0.23
-6 1 17 1.15 0.24
-6 1 17 1.6 0.25
6 1 -17 1.56 0.25
6 1 -17 1.57 0.25
6 1 -17 1.02 0.21
6 1 -17 1.4 0.22
5 -1 -17 36.55 2.29
5 -1 -17 33.5 2.17
5 -1 -17 34.23 2.23
5 -1 -17 39.04 2.08
5 -1 -17 35.83 2.12
5 1 -17 35.64 2.09
5 1 -17 36.8 2.27
-5 1 17 35.09 2.35
5 1 -17 34.22 2.2
5 1 -17 37.29 2.32
5 1 -17 31.37 2.09
-5 1 17 35.41 2.23
5 1 -17 35.2 2.14
5 1 -17 31.09 2.33
5 1 -17 35.18 2.22
4 -1 -17 7.61 0.57
4 -1 -17 7.65 0.63
4 -1 -17 8.18 0.6
4 -1 -17 7.99 0.61
4 -1 -17 7.64 0.6
4 -1 -17 8.23 0.59
4 1 -17 7.26 0.61
4 1 -17 8.95 0.68
4 1 -17 8.42 0.65
4 1 -17 7.91 0.63
4 1 -17 8.25 0.66
4 1 -17 7.84 0.61
4 1 -17 7.85 0.62
4 1 -17 7.77 0.62
-3 -1 17 103.67 8.3
-3 -1 17 110.17 8
3 -1 -17 101.39 9.1
3 -1 -17 117.63 6
3 -1 -17 117.56 6.14
3 -1 -17 103.96 6.12
3 -1 -17 109.62 6.63
3 -1 -17 111.57 6.11
3 -1 -17 103.27 8.08
-3 -1 17 100.82 7.22
-3 -1 17 89.33 7.9
3 -1 -17 92.96 7.9
3 -1 -17 115.96 6.34
-3 -1 17 98.31 8
-3 -1 17 98.78 7.95
3 1 -17 115.05 6.17
3 1 -17 114.89 6.38
-3 1 17 95.31 7.99
3 1 -17 112.27 6.17
3 1 -17 113.04 6.15
3 1 -17 100.82 6.16
-3 1 17 101.03 7.96
-3 1 17 101.91 7.96
3 1 -17 112.67 6.67
3 1 -17 101 6.42
3 1 -17 107.99 6.52
3 1 -17 114.81 6.02
-2 -1 17 0.45 0.23
2 -1 -17 0.46 0.2
2 -1 -17 0.68 0.17
2 -1 -17 0.56 0.17
2 -1 -17 0.38 0.2
2 -1 -17 0.37 0.19
-2 -1 17 0.68 0.25
2 -1 -17 0.52 0.16
-2 -1 17 0.71 0.24
2 -1 -17 0.4 0.16
2 -1 -17 0.45 0.15
-2 -1 17 0.44 0.21
-2 -1 17 0.51 0.23
2 -1 -17 0.2 0.12
-2 -1 17 0.52 0.26
2 -1 -17 0.54 0.17
2 -1 -17 0.41 0.17
-2 1 17 0.2 0.17
2 1 -17 0.4 0.19
2 1 -17 0.46 0.19
2 1 -17 0.32 0.2
2 1 -17 0.63 0.18
2 1 -17 0.71 0.21
2 1 -17 0.43 0.18
2 1 -17 0.78 0.21
2 1 -17 0.47 0.19
-2 1 17 0.34 0.18
2 1 -17 0.36 0.17
-2 1 17 0.06 0.2
2 1 -17 0.51 0.2
-2 1 17 0.85 0.25
-2 1 17 0.47 0.25
2 1 -17 0.2 0.15
1 -1 -17 11.28 0.73
1 -1 -17 11.03 0.71
1 -1 -17 10.67 0.93
-1 -1 17 10 0.93
-1 -1 17 9.22 0.92
1 -1 -17 11.48 0.72
1 -1 -17 11.29 0.72
1 -1 -17 9.19 0.65
1 -1 -17 9.85 0.72
-1 -1 17 9.25 0.97
1 -1 -17 10.56 0.94
1 -1 -17 9.88 0.68
-1 -1 17 9.55 0.97
-1 -1 17 10.03 1.07
1 -1 -17 8.98 0.83
-1 -1 17 9.5 0.91
1 1 -17 10.88 0.76
-1 1 17 8.41 0.95
1 1 -17 11.9 0.79
1 1 -17 10.01 0.74
1 1 -17 9.14 0.68
-1 1 17 9.3 0.93
1 1 -17 9.23 0.69
-1 1 17 9.26 0.92
1 1 -17 10.31 0.72
1 1 -17 11.48 0.75
1 1 -17 11.22 0.77
-1 1 17 10.04 0.93
1 1 -17 9.58 0.73
0 -1 -17 1.87 0.26
0 -1 -17 1.33 0.22
0 -1 -17 1.82 0.26
0 -1 -17 1.85 0.27
0 -1 17 0.95 0.28
0 -1 -17 1.64 0.25
0 -1 17 1.42 0.31
0 -1 -17 1.52 0.31
0 -1 17 1.55 0.34
0 -1 -17 1.52 0.3
0 -1 -17 1.97 0.35
0 -1 17 1.19 0.34
0 -1 17 1.61 0.34
0 -1 17 2.02 0.42
0 -1 -17 1.62 0.27
0 -1 -17 1.28 0.29
0 -1 -17 1.68 0.25
0 1 17 1.61 0.27
0 1 -17 1.6 0.28
0 1 17 1.26 0.29
0 1 -17 1.54 0.29
0 1 -17 1.52 0.27
0 1 -17 2.11 0.31
0 1 17 1.19 0.33
0 1 -17 1.49 0.27
0 1 -17 1.85 0.29
0 1 -17 1.52 0.27
0 1 -17 1.25 0.28
0 1 -17 1.25 0.27
0 1 17 1.18 0.28
0 1 -17 1.19 0.24
0 1 17 1.43 0.36
-1 -1 -17 82.94 4.63
-1 -1 -17 79.09 5.96
-1 -1 -17 84.72 4.66
1 -1 17 75.83 6.39
1 -1 17 78.83 6.29
-1 -1 -17 82.64 4.67
1 -1 17 70.62 6.47
1 -1 17 83.04 6.72
1 -1 17 75.92 6.04
-1 -1 -17 80.08 6.03
-1 -1 -17 81.99 5.66
-1 -1 -17 76.78 4.54
1 -1 17 81.37 6.04
-1 1 -17 75.28 4.88
-1 1 -17 87.07 4.71
-1 1 -17 82.45 4.69
1 1 17 67.06 5.99
-1 1 -17 79.2 4.64
1 1 17 75.27 6.07
-1 1 -17 87.5 4.88
-1 1 -17 86.94 4.69
1 1 17 80.6 6.09
1 1 17 76.12 6.41
-1 1 -17 87.38 4.71
-1 1 -17 84.91 4.59
-2 -1 -17 28.66 2.31
-2 -1 -17 24.81 2.3
-2 -1 -17 30.7 1.8
-2 -1 -17 25.81 2.02
-2 -1 -17 32.99 1.82
2 -1 17 27.57 2.51
2 -1 17 28.44 2.48
2 -1 17 28.83 2.44
-2 -1 -17 31.03 1.79
-2 -1 -17 29.4 2.19
2 -1 17 24.69 2.62
2 -1 17 30.5 2.37
2 -1 17 25.56 2.57
-2 -1 -17 31.55 1.77
2 1 17 27.39 2.36
-2 1 -17 30.35 1.8
-2 1 -17 33.3 1.91
-2 1 -17 30.04 1.92
-2 1 -17 31.13 1.82
2 1 17 24.56 2.31
2 1 17 31.29 2.05
-2 1 -17 32.2 1.8
-2 1 -17 30.15 1.83
2 1 17 29.34 2.01
-2 1 -17 31.19 1.91
2 1 17 28.53 2.49
2 1 17 32.02 2.27
2 1 17 25.32 2.32
2 1 17 31.71 2.32
-2 1 -17 34.26 1.85
-3 -1 -17 121.55 6.71
-3 -1 -17 113.24 6.54
-3 -1 -17 119.21 6.94
-3 -1 -17 112.71 6.68
-3 -1 -17 115.49 6.69
-3 -1 -17 105.04 6.96
3 1 17 120.22 7.33
-3 1 -17 107.26 7.09
-3 1 -17 115.19 6.94
-3 1 -17 115.81 6.71
3 1 17 126.21 7.7
3 1 17 115.64 8.46
3 1 17 111.93 7.37
-3 1 -17 102.84 6.94
-3 1 -17 116.88 6.56
-3 1 -17 120.23 6.72
3 1 17 118.07 7.53
3 1 17 126.07 8.4
-3 1 -17 115.91 7.01
-4 -1 -17 3.02 0.33
-4 -1 -17 2.7 0.34
-4 -1 -17 3.15 0.33
-4 -1 -17 2.96 0.34
-4 -1 -17 2.96 0.32
-4 1 -17 3.01 0.37
-4 1 -17 3.1 0.37
-4 1 -17 3.17 0.33
4 1 17 2.85 0.36
4 1 17 2.89 0.36
-4 1 -17 3.27 0.34
-4 1 -17 3.18 0.36
-4 1 -17 3.21 0.36
4 1 17 2.82 0.36
4 1 17 2.68 0.39
4 1 17 2.92 0.37
-5 -1 -17 22.28 1.37
-5 -1 -17 22.97 1.44
-5 -1 -17 21.38 1.35
-5 -1 -17 19.77 1.43
-5 -1 -17 21.9 1.34
-5 1 -17 22.25 1.46
5 1 17 19.5 1.45
5 1 17 22.08 1.56
5 1 17 22 1.52
-5 1 -17 22.51 1.43
-5 1 -17 23.95 1.4
5 1 17 22.77 1.51
-5 1 -17 22.77 1.47
-5 1 -17 21.43 1.33
5 1 17 23.12 1.56
6 -1 17 2.22 0.24
-6 -1 -17 2.49 0.25
-6 -1 -17 1.94 0.25
-6 -1 -17 2.1 0.22
6 -1 17 2.14 0.24
6 -1 17 2.42 0.25
6 -1 17 1.94 0.23
-6 -1 -17 2.09 0.24
6 1 17 2 0.25
-6 1 -17 1.97 0.24
-6 1 -17 2.21 0.25
-6 1 -17 2.25 0.27
-6 1 -17 2.27 0.27
6 1 17 2.47 0.27
6 1 17 2.31 0.25
6 1 17 1.81 0.23
6 -2 -17 0.23 0.11
6 -2 -17 0.3 0.12
6 -2 -17 0.39 0.1
6 2 -17 0.35 0.12
-6 2 17 0.18 0.13
6 2 -17 0.18 0.13
-6 2 17 0.27 0.12
-6 2 17 0.34 0.13
6 2 -17 0.23 0.13
6 2 -17 0.29 0.13
6 2 -17 0.09 0.12
5 -2 -17 20.84 1.42
5 -2 -17 20.98 1.45
5 -2 -17 23.79 1.37
5 -2 -17 22.54 1.5
5 -2 -17 24.41 1.4
5 2 -17 23.9 1.43
5 2 -17 21.81 1.47
-5 2 17 21.04 1.46
-5 2 17 24.11 1.44
5 2 -17 23.53 1.51
-5 2 17 24.25 1.58
5 2 -17 23.37 1.4
5 2 -17 20.82 1.54
5 2 -17 23.34 1.55
-5 2 17 24.86 1.52
-5 2 17 22.91 1.56
5 2 -17 21.18 1.39
5 2 -17 23.37 1.47
4 -2 -17 9.1 0.63
4 -2 -17 8.16 0.6
4 -2 -17 8.89 0.61
4 -2 -17 8.44 0.63
4 -2 -17 8.41 0.65
4 2 -17 8.22 0.66
4 2 -17 8.28 0.67
-4 2 17 9.72 0.69
-4 2 17 8.68 0.71
4 2 -17 7.74 0.63
4 2 -17 8.56 0.69
4 2 -17 8.51 0.66
4 2 -17 7.94 0.69
4 2 -17 9.41 0.72
-4 2 17 9.77 0.74
-4 2 17 9.98 0.74
4 2 -17 9.09 0.69
-4 2 17 9.35 0.75
4 2 -17 8.18 0.65
4 2 -17 8.09 0.65
3 -2 -17 10.36 0.72
3 -2 -17 9.35 0.66
3 -2 -17 9.1 0.71
3 -2 -17 8.79 0.67
3 -2 -17 9.12 0.68
3 -2 -17 9.64 0.69
3 2 -17 10.23 0.77
3 2 -17 9.7 0.75
-3 2 17 11.72 0.84
3 2 -17 9.95 0.73
3 2 -17 7.91 0.76
3 2 -17 9.53 0.75
3 2 -17 10.2 0.74
-3 2 17 8.46 0.88
-3 2 17 9.42 0.81
-3 2 17 10.78 0.86
3 2 -17 10.72 0.76
3 2 -17 9.03 0.73
3 2 -17 9.64 0.71
3 2 -17 10.47 0.79
3 2 -17 9.48 0.76
-3 2 17 9.77 0.79
3 2 -17 9.78 0.78
-3 2 17 10.72 0.75
2 -2 -17 0.23 0.13
2 -2 -17 0.34 0.16
2 2 -17 0.14 0.2
-2 2 17 0.1 0.17
2 2 -17 0.13 0.2
2 2 -17 0.27 0.21
2 2 -17 0.19 0.18
-2 2 17 0.33 0.25
2 2 -17 -0.08 0.17
2 2 -17 0.19 0.19
-2 2 17 0.44 0.23
2 2 -17 0.51 0.21
-2 2 17 0.45 0.24
2 2 -17 0.35 0.22
2 2 -17 0.37 0.21
2 2 -17 0.74 0.21
-2 2 17 0.5 0.22
-2 2 17 0.19 0.21
2 2 -17 0.15 0.17
2 2 -17 0.31 0.21
2 2 -17 0.2 0.19
2 2 -17 0.3 0.19
1 -2 -17 118.28 7.3
-1 2 17 142.99 8.4
1 2 -17 138.74 7.82
1 2 -17 140.52 7.57
1 2 -17 126.51 7.35
1 2 -17 127.96 7.55
1 2 -17 118.53 7.85
1 2 -17 117.57 8.14
-1 2 17 134.81 8
1 2 -17 124.57 7.38
1 2 -17 137.67 7.61
1 2 -17 134.9 7.54
1 2 -17 129.71 7.87
-1 2 17 147.26 8.35
-1 2 17 143.93 9.53
-1 2 17 120.9 7.47
-1 2 17 126.87 9.6
1 2 -17 135.27 7.62
-1 2 17 119.33 9.42
1 2 -17 129.04 7.58
0 2 17 1.49 0.39
0 2 -17 1.84 0.34
0 2 17 1.15 0.39
0 2 17 1.6 0.34
0 2 -17 1.57 0.29
0 2 -17 1.81 0.34
0 2 -17 1.32 0.26
0 2 -17 1.93 0.38
0 2 -17 1.32 0.3
0 2 -17 1.37 0.3
0 2 -17 1.11 0.27
0 2 -17 1.64 0.3
0 2 17 2.05 0.39
0 2 -17 1.72 0.31
0 2 17 1.23 0.35
0 2 17 2.08 0.4
0 2 -17 1.53 0.32
0 2 17 1.89 0.32
1 2 17 72.87 4.97
-1 2 -17 64.34 3.85
-1 2 -17 60.41 3.96
1 2 17 60.84 4.43
-1 2 -17 64.13 3.79
-1 2 -17 66.33 3.89
1 2 17 73.32 4.88
-1 2 -17 59.18 3.79
-1 2 -17 63.73 3.86
-1 2 -17 69.24 4.05
-1 2 -17 63.3 4.06
-1 2 -17 61.75 4.01
1 2 17 66.44 4.21
1 2 17 58.14 4.2
-1 2 -17 66.47 3.88
1 2 17 72.34 4.92
-2 2 -17 0.57 0.23
-2 2 -17 0.36 0.21
2 2 17 0.45 0.19
2 2 17 0.78 0.3
2 2 17 0.44 0.22
2 2 17 0.65 0.25
-2 2 -17 0.3 0.22
2 2 17 0.56 0.27
-2 2 -17 -0.08 0.17
2 2 17 0.46 0.24
-2 2 -17 0.78 0.24
-2 2 -17 0.61 0.21
2 2 17 0.06 0.15
-2 2 -17 0.53 0.22
-2 2 -17 0.5 0.21
-2 2 -17 0.49 0.22
-3 -2 -17 0.51 0.16
-3 2 -17 1.08 0.27
3 2 17 0.76 0.27
-3 2 -17 0.88 0.25
3 2 17 0.93 0.23
-3 2 -17 0.69 0.22
-3 2 -17 1.41 0.3
-3 2 -17 1.31 0.27
3 2 17 0.96 0.29
3 2 17 1.96 0.31
3 2 17 1.1 0.26
-3 2 -17 1.39 0.27
-3 2 -17 2.13 0.34
3 2 17 1.2 0.31
-3 2 -17 1.58 0.29
-4 -2 -17 1.53 0.22
-4 -2 -17 1.25 0.24
-4 -2 -17 2.08 0.28
-4 -2 -17 1.59 0.25
-4 2 -17 2.18 0.3
-4 2 -17 1.76 0.28
4 2 17 2.58 0.38
4 2 17 2.09 0.35
-4 2 -17 1.78 0.28
-4 2 -17 1.85 0.3
4 2 17 2.37 0.37
-4 2 -17 1.5 0.27
4 2 17 1.78 0.31
4 2 17 1.65 0.28
4 2 17 1.98 0.31
-4 2 -17 1.83 0.31
-5 -2 -17 62.3 3.39
-5 -2 -17 56.05 3.52
-5 -2 -17 58.96 3.38
-5 -2 -17 50.97 3.48
-5 -2 -17 62.47 3.31
5 2 17 60.64 3.81
5 2 17 49.67 4.19
5 2 17 60.07 3.87
-5 2 -17 58.32 3.39
5 2 17 54.91 3.72
-5 2 -17 63.33 3.62
-5 2 -17 53.92 3.61
5 2 17 63.36 3.71
-5 2 -17 62.13 3.56
-5 2 -17 57.78 3.53
4 -3 -17 0.09 0.08
4 -3 -17 0.09 0.1
4 -3 -17 0 0.08
4 3 -17 0.02 0.11
4 3 -17 0.18 0.11
4 3 -17 0.15 0.12
4 3 -17 -0.07 0.11
4 3 -17 0.16 0.12
-4 3 17 0.11 0.13
-4 3 17 0.01 0.13
4 3 -17 0.16 0.13
-4 3 17 0 0.13
4 3 -17 0.07 0.11
4 3 -17 0.04 0.13
3 -3 -17 39.82 2.33
3 -3 -17 36.41 2.19
3 -3 -17 40.45 2.26
3 -3 -17 36.54 2.23
3 3 -17 34.81 2.35
3 3 -17 38.87 2.29
-3 3 17 40.22 2.28
3 3 -17 38.48 2.23
3 3 -17 33.35 2.26
3 3 -17 39.68 2.3
-3 3 17 37.3 2.49
3 3 -17 36.19 2.45
3 3 -17 36.76 2.28
3 3 -17 39.14 2.38
3 3 -17 34.14 2.39
-3 3 17 44.38 2.46
-3 3 17 41.93 2.56
3 3 -17 39.13 2.3
2 -3 -17 6.39 0.47
2 3 -17 7.16 0.55
2 3 -17 6.24 0.51
2 3 -17 6.78 0.52
2 3 -17 6.09 0.53
-2 3 17 7.06 0.63
2 3 -17 6.89 0.57
-2 3 17 7.31 0.52
2 3 -17 7.27 0.59
2 3 -17 6.51 0.56
-2 3 17 6.57 0.66
-2 3 17 7.22 0.6
2 3 -17 6.63 0.56
2 3 -17 6.53 0.56
2 3 -17 6.92 0.54
2 3 -17 5.65 0.51
-2 3 17 7.47 0.65
2 3 -17 6.99 0.57
1 3 -17 4.57 0.47
-1 3 17 5.74 0.57
1 3 -17 5.34 0.44
1 3 -17 5.17 0.46
1 3 -17 6.15 0.51
1 3 -17 5.77 0.48
1 3 -17 5.88 0.52
1 3 -17 5.51 0.54
-1 3 17 4.9 0.6
1 3 -17 5.09 0.48
1 3 -17 6.52 0.54
-1 3 17 5.49 0.62
1 3 -17 6.15 0.48
-1 3 17 6.33 0.58
1 3 -17 5.66 0.48
1 3 -17 5.6 0.5
-1 3 17 5.44 0.5
1 3 -17 6.04 0.52
0 3 -17 4.28 0.43
0 3 -17 4.44 0.45
0 3 -17 3.86 0.41
0 3 -17 4.24 0.41
0 3 -17 4.61 0.43
0 3 -17 4.09 0.44
0 3 -17 4.8 0.48
0 3 17 4.47 0.56
0 3 -17 4.02 0.4
0 3 17 4.51 0.47
0 3 -17 4.21 0.41
0 3 17 5.32 0.58
0 3 -17 4.04 0.41
0 3 17 4.69 0.46
0 3 17 3.41 0.48
0 3 -17 3.72 0.42
0 3 -17 4.46 0.42
1 3 17 22.4 1.8
-1 3 -17 21.98 1.47
1 3 17 24.4 1.85
-1 3 -17 24.04 1.49
-1 3 -17 21.13 1.38
1 3 17 25.09 1.55
1 3 17 20.64 1.59
-1 3 -17 21.8 1.44
-1 3 -17 22.58 1.41
1 3 17 20.93 1.5
-1 3 -17 22.77 1.44
-1 3 -17 22.59 1.43
-1 3 -17 23.32 1.42
1 3 17 25.14 1.81
-1 3 -17 19.88 1.46
-1 3 -17 20.23 1.47
2 3 17 1.03 0.25
2 3 17 0.46 0.16
2 3 17 0.83 0.19
-2 3 -17 0.84 0.22
-2 3 -17 0.58 0.2
-2 3 -17 1.15 0.24
-2 3 -17 0.96 0.22
-2 3 -17 0.77 0.2
-2 3 -17 0.76 0.21
-2 3 -17 0.66 0.21
2 3 17 1.03 0.3
2 3 17 0.89 0.28
-2 3 -17 0.86 0.22
2 3 17 0.78 0.23
-2 3 -17 0.99 0.23
-3 -3 -17 46.35 2.96
-3 3 -17 47.03 3.18
3 3 17 56.83 3.46
-3 3 -17 52.19 3.14
-3 3 -17 55.91 3.02
3 3 17 54.03 3.79
3 3 17 44.36 3.68
-3 3 -17 52.96 3.18
-3 3 -17 48.97 2.92
3 3 17 58.14 3.78
3 3 17 47.93 3.25
-3 3 -17 51.03 3.11
-4 -3 -17 6.95 0.46
4 3 17 6.42 0.52
-4 3 -17 6.06 0.5
7 0 -18 0.06 0.08
-7 0 18 0.25 0.11
-7 0 18 0.2 0.09
7 0 -18 0.24 0.1
-7 0 18 0.14 0.11
7 0 -18 0.04 0.1
6 0 -18 3.41 0.34
6 0 -18 3.85 0.37
6 0 -18 3.91 0.34
6 0 -18 3.93 0.36
6 0 -18 4.35 0.34
6 0 -18 3.27 0.33
5 0 -18 0.2 0.13
5 0 -18 0.03 0.13
5 0 -18 0.02 0.15
5 0 -18 0.01 0.12
5 0 -18 -0.01 0.15
5 0 -18 0.1 0.16
5 0 -18 0.05 0.13
4 0 -18 70.74 4.25
4 0 -18 62.68 3.88
4 0 -18 65.52 4.14
4 0 -18 70.17 4.05
4 0 -18 70.98 3.83
4 0 -18 60.53 3.89
3 0 -18 0.02 0.11
-3 0 18 -0.13 0.21
-3 0 18 -0.1 0.18
-3 0 18 0.06 0.21
-3 0 18 -0.23 0.21
3 0 -18 -0.11 0.12
-3 0 18 -0.05 0.22
-3 0 18 -0.01 0.21
3 0 -18 0.15 0.13
-3 0 18 0.07 0.22
-3 0 18 0 0.19
3 0 -18 -0.13 0.11
3 0 -18 -0.04 0.12
3 0 -18 0.07 0.14
3 0 -18 0.01 0.12
2 0 -18 96.55 5.07
-2 0 18 94.59 6.65
-2 0 18 93.21 6.64
2 0 -18 85.06 5.26
-2 0 18 78.52 6.54
2 0 -18 93 4.96
2 0 -18 89.6 5.1
2 0 -18 81.05 5.47
2 0 -18 92.95 5.09
-2 0 18 81.35 6.56
2 0 -18 94.13 5.08
2 0 -18 80.85 6.54
2 0 -18 96.57 5.26
-2 0 18 73.95 6.79
-2 0 18 82.28 6.96
-1 0 18 0.14 0.18
1 0 -18 0.17 0.15
-1 0 18 0.24 0.2
-1 0 18 0.2 0.19
1 0 -18 0.15 0.12
1 0 -18 0.17 0.13
1 0 -18 0.22 0.19
1 0 -18 -0.11 0.13
1 0 -18 0.12 0.12
-1 0 18 0.16 0.17
-1 0 18 0.16 0.15
-1 0 18 0.24 0.17
1 0 -18 0.18 0.12
1 0 -18 0.07 0.14
-1 0 18 0.26 0.17
1 0 -18 0.12 0.16
1 0 -18 0.07 0.12
0 0 -18 1.42 0.28
0 0 -18 1.56 0.24
0 0 -18 1.44 0.25
0 0 18 1.48 0.34
0 0 -18 1.79 0.24
0 0 18 1.01 0.28
0 0 -18 1.46 0.26
0 0 18 1.37 0.3
0 0 -18 1.64 0.25
0 0 -18 1.56 0.27
0 0 18 1.79 0.34
0 0 18 1 0.25
0 0 18 1.44 0.32
1 0 18 0.07 0.17
-1 0 -18 0.28 0.16
-1 0 -18 0.17 0.19
1 0 18 0.03 0.2
-1 0 -18 -0.13 0.14
1 0 18 0.09 0.19
-1 0 -18 -0.05 0.13
-1 0 -18 0.19 0.14
-1 0 -18 0.04 0.14
-1 0 -18 0.08 0.21
1 0 18 0.07 0.16
-1 0 -18 0.17 0.13
-1 0 -18 -0.04 0.15
1 0 18 0.08 0.21
-1 0 -18 0.35 0.16
1 0 18 1 0.3
-2 0 -18 60.78 3.49
2 0 18 53.04 4.34
-2 0 -18 53.29 3.32
-2 0 -18 58.21 3.36
-2 0 -18 54.66 4.3
-2 0 -18 54.88 3.49
2 0 18 50.1 4.35
-2 0 -18 59.72 3.29
2 0 18 57 4.63
-2 0 -18 62.14 3.38
-2 0 -18 61.83 3.37
-3 0 -18 0.43 0.14
-3 0 -18 0.06 0.14
-3 0 -18 -0.16 0.13
-3 0 -18 -0.05 0.13
-3 0 -18 -0.04 0.14
-3 0 -18 -0.1 0.15
-3 0 -18 -0.04 0.15
-4 0 -18 81.19 4.25
-4 0 -18 69.09 4.34
4 0 18 63.17 5.22
-4 0 -18 78.46 4.14
-4 0 -18 67.83 4.45
-4 0 -18 73.77 4.22
-4 0 -18 75.73 4.42
4 0 18 68.23 4.52
5 0 18 0.09 0.12
-5 0 -18 0.22 0.16
-5 0 -18 0.07 0.13
-5 0 -18 0.32 0.15
5 0 18 0.34 0.15
5 0 18 0.05 0.11
-5 0 -18 0.39 0.16
5 0 18 0.04 0.12
-5 0 -18 0.49 0.17
6 0 18 15.22 1.03
-6 0 -18 13.24 0.88
-6 0 -18 14.23 0.98
6 0 18 14.32 0.99
6 0 18 14.58 0.98
6 0 18 15.07 1.02
-6 0 -18 16.24 0.98
-6 0 -18 15.26 0.93
6 -1 -18 48.05 2.8
6 -1 -18 52.17 3.06
6 -1 -18 47.11 2.98
6 -1 -18 41.35 2.87
6 -1 -18 52.72 2.76
6 1 -18 48.64 3.07
-6 1 18 50.32 3.11
-6 1 18 53.35 2.82
6 1 -18 50.8 3
6 1 -18 41.68 2.88
-6 1 18 47.44 2.96
-6 1 18 48.31 2.98
6 1 -18 47.34 2.95
-6 1 18 42.62 3.08
6 1 -18 48.74 2.76
6 1 -18 49.24 2.82
5 -1 -18 8.38 0.6
5 -1 -18 8.75 0.59
5 -1 -18 7.54 0.61
5 -1 -18 7.84 0.61
5 -1 -18 8.68 0.64
5 1 -18 8.52 0.63
5 1 -18 8.46 0.66
-5 1 18 8.82 0.68
5 1 -18 7.32 0.58
5 1 -18 8.15 0.63
-5 1 18 8.69 0.68
5 1 -18 7.96 0.6
-5 1 18 8.03 0.62
-5 1 18 8.24 0.61
5 1 -18 7.85 0.63
-5 1 18 8.45 0.65
5 1 -18 8.65 0.65
4 -1 -18 11.86 0.83
4 -1 -18 13.82 0.86
4 -1 -18 12.53 0.88
4 -1 -18 12.25 0.9
4 -1 -18 13.7 0.84
4 -1 -18 10.52 0.86
4 1 -18 13.86 0.92
-4 1 18 11.59 0.88
4 1 -18 12.36 0.93
4 1 -18 13.34 0.86
4 1 -18 12.79 0.91
4 1 -18 11.87 0.86
4 1 -18 11.76 0.88
4 1 -18 12.17 0.86
4 1 -18 13.74 0.89
3 -1 -18 0.2 0.14
3 -1 -18 0.17 0.14
3 -1 -18 0.19 0.14
3 -1 -18 0.16 0.14
3 -1 -18 0.18 0.13
3 -1 -18 0.04 0.1
3 -1 -18 0.13 0.13
3 1 -18 0.23 0.17
3 1 -18 0.31 0.17
3 1 -18 0.21 0.17
3 1 -18 0.17 0.17
3 1 -18 0.09 0.15
3 1 -18 0.24 0.18
3 1 -18 0.18 0.16
3 1 -18 0.09 0.18
3 1 -18 0.22 0.16
2 -1 -18 20.33 1.23
2 -1 -18 21.29 1.28
2 -1 -18 19.38 1.22
-2 -1 18 17.19 1.44
2 -1 -18 21.08 1.22
-2 -1 18 18.02 1.6
-2 -1 18 18.63 1.69
-2 -1 18 17.59 1.6
-2 -1 18 18.44 1.82
2 -1 -18 18.77 1.18
2 -1 -18 19.43 1.63
2 -1 -18 22.11 1.24
2 -1 -18 17.83 1.58
-2 -1 18 18.56 1.61
-2 -1 18 17.74 1.69
-2 -1 18 20.03 1.63
-2 1 18 17.16 1.58
-2 1 18 16.62 1.59
2 1 -18 18.17 1.23
2 1 -18 19.18 1.3
2 1 -18 20.77 1.22
2 1 -18 21.06 1.31
2 1 -18 19.42 1.33
-2 1 18 18.67 1.62
2 1 -18 19.91 1.27
-2 1 18 17.27 1.61
2 1 -18 20.91 1.27
2 1 -18 20.87 1.26
2 1 -18 21.25 1.28
1 -1 -18 12.75 1.14
1 -1 -18 13.55 0.87
1 -1 -18 13.47 0.87
-1 -1 18 12.31 1.13
1 -1 -18 12.94 1.12
-1 -1 18 12.33 1.29
-1 -1 18 11.41 1.17
1 -1 -18 12.69 0.83
1 -1 -18 11.16 1.01
1 -1 -18 12.43 0.88
-1 -1 18 12.07 1.12
1 -1 -18 13.66 0.89
-1 -1 18 12 1.18
1 -1 -18 13.67 0.86
-1 1 18 13.08 1.14
1 1 -18 13.52 0.93
1 1 -18 13.29 0.87
1 1 -18 13.49 0.92
1 1 -18 11.29 0.83
-1 1 18 13.19 1.14
1 1 -18 13.22 0.89
-1 1 18 11.76 1.13
1 1 -18 14.11 0.91
-1 1 18 11.48 1.17
1 1 -18 11.59 0.84
1 1 -18 12.97 0.9
1 1 -18 13.18 0.89
0 -1 -18 173.39 12.33
0 -1 -18 198.46 10.14
0 -1 18 155.67 13.2
0 -1 18 173.68 14.16
0 -1 -18 174.38 10.18
0 -1 -18 151.45 12.98
0 -1 -18 181.73 13.17
0 -1 -18 193.96 10.57
0 -1 18 156.65 13.14
0 -1 -18 182.31 10.48
0 -1 -18 200.15 10.23
0 -1 18 176.66 13.97
0 -1 -18 196.18 10.19
0 -1 18 165.95 13.69
0 1 -18 181.15 9.97
0 1 -18 204.13 10.23
0 1 18 154.18 13.12
0 1 -18 168.01 10.18
0 1 -18 196.67 10.61
0 1 -18 195.29 10.16
0 1 -18 194.82 10.25
0 1 -18 178.41 10.5
0 1 -18 181.6 10.22
0 1 18 151.82 13.95
0 1 18 167.98 13.24
0 1 18 166.92 13.24
-1 -1 -18 7.19 0.54
1 -1 18 6.89 0.72
-1 -1 -18 8.01 0.55
1 -1 18 5.77 0.77
-1 -1 -18 6.89 0.51
-1 -1 -18 6.81 0.51
1 -1 18 6.34 0.73
1 -1 18 6.16 0.73
-1 -1 -18 5.97 0.64
-1 -1 -18 5.61 0.66
-1 -1 -18 6.35 0.68
-1 -1 -18 8.21 0.57
-1 -1 -18 7.22 0.53
-1 1 -18 6.43 0.53
-1 1 -18 6.8 0.58
1 1 18 6.08 0.69
-1 1 -18 7.68 0.57
1 1 18 6.63 0.59
-1 1 -18 6.52 0.54
-1 1 -18 6.75 0.58
1 1 18 6.89 0.58
-1 1 -18 7.62 0.57
1 1 18 6.45 0.71
1 1 18 6.19 0.73
-1 1 -18 6.73 0.56
-1 1 -18 6.94 0.56
-2 -1 -18 26.16 1.7
-2 -1 -18 29.69 1.73
-2 -1 -18 28.67 1.69
-2 -1 -18 29.1 1.79
-2 -1 -18 26.58 1.69
-2 -1 -18 29.92 1.74
-2 1 -18 27.8 1.75
2 1 18 26.08 1.93
-2 1 -18 29.4 1.76
2 1 18 27.99 2.02
-2 1 -18 25.26 1.8
2 1 18 27.18 2.14
-2 1 -18 29.96 1.82
2 1 18 30.56 2.22
2 1 18 26.41 2.19
-2 1 -18 24.59 1.7
-2 1 -18 27.73 1.73
-2 1 -18 26.37 1.83
2 1 18 30.33 1.92
-2 1 -18 28.97 1.71
-3 -1 -18 0.73 0.2
-3 -1 -18 0.73 0.21
-3 -1 -18 0.67 0.2
-3 -1 -18 0.58 0.16
-3 -1 -18 0.55 0.18
-3 -1 -18 0.6 0.19
3 1 18 0.83 0.26
3 1 18 0.97 0.23
3 1 18 0.81 0.21
-3 1 -18 0.94 0.23
-3 1 -18 0.87 0.23
3 1 18 0.93 0.23
-3 1 -18 0.27 0.17
3 1 18 0.82 0.25
-3 1 -18 0.64 0.22
-3 1 -18 0.49 0.19
3 1 18 0.53 0.2
-3 1 -18 0.36 0.2
-3 1 -18 0.8 0.23
-4 -1 -18 5.39 0.45
-4 -1 -18 5.17 0.47
-4 -1 -18 5.49 0.46
-4 -1 -18 5.55 0.46
-4 -1 -18 6.24 0.46
4 1 18 5.45 0.57
-4 1 -18 5.41 0.51
-4 1 -18 5.48 0.46
-4 1 -18 5.34 0.5
4 1 18 6.66 0.54
-4 1 -18 5.87 0.47
-4 1 -18 6.18 0.5
4 1 18 5.7 0.54
4 1 18 5.89 0.51
4 1 18 5.43 0.52
-4 1 -18 4.91 0.48
-5 -1 -18 0.42 0.15
-5 -1 -18 0.47 0.16
-5 -1 -18 0.37 0.15
-5 -1 -18 0.32 0.17
-5 -1 -18 0.44 0.15
5 -1 18 0.46 0.15
-5 1 -18 0.54 0.19
-5 1 -18 0.42 0.15
5 1 18 0.28 0.14
-5 1 -18 0.33 0.16
5 1 18 0.39 0.15
5 1 18 0.48 0.16
5 1 18 0.17 0.15
5 1 18 0.45 0.15
-5 1 -18 0.38 0.17
-5 1 -18 0.67 0.2
6 -1 18 71.57 4.34
-6 -1 -18 68.49 4.21
-6 -1 -18 72.69 4.04
-6 -1 -18 65.77 3.93
6 -1 18 66.24 4.5
6 -1 18 69.41 4.44
-6 1 -18 75.03 4.23
6 1 18 70.07 4.39
6 1 18 75.98 4.53
6 1 18 69.65 4.44
-6 1 -18 63.14 4.02
-6 1 -18 72.15 4.29
6 -2 -18 0.45 0.11
-6 2 18 0.48 0.12
6 2 -18 0.4 0.14
6 2 -18 0.35 0.14
5 -2 -18 0.26 0.11
5 -2 -18 0.33 0.13
5 -2 -18 0.28 0.12
5 -2 -18 0.21 0.12
-5 2 18 0.19 0.14
5 2 -18 0.3 0.14
5 2 -18 0.17 0.14
5 2 -18 0.24 0.16
5 2 -18 0.25 0.15
-5 2 18 0.26 0.14
5 2 -18 0.16 0.15
-5 2 18 0.23 0.14
5 2 -18 0.33 0.17
5 2 -18 0.18 0.14
-5 2 18 0.24 0.15
4 -2 -18 44.35 2.68
4 -2 -18 43.78 2.54
4 -2 -18 44.91 2.6
4 -2 -18 39.13 2.56
4 -2 -18 41.47 2.79
4 2 -18 40.96 2.72
4 2 -18 43.66 2.62
-4 2 18 47.96 2.64
4 2 -18 44.71 2.58
4 2 -18 40.17 2.6
4 2 -18 45.65 2.64
-4 2 18 42.36 2.86
-4 2 18 42.27 2.87
-4 2 18 48.54 2.82
-4 2 18 48.88 2.94
4 2 -18 45.41 2.85
4 2 -18 44.11 2.78
4 2 -18 43.16 2.63
4 2 -18 44.95 2.73
3 -2 -18 0.28 0.14
3 -2 -18 0.38 0.15
3 -2 -18 0.33 0.15
3 -2 -18 0.38 0.15
3 -2 -18 0.4 0.17
3 -2 -18 0.26 0.14
3 2 -18 0.4 0.2
-3 2 18 0.4 0.21
-3 2 18 0.28 0.21
3 2 -18 0.38 0.2
3 2 -18 0.33 0.19
-3 2 18 0.09 0.17
3 2 -18 0.35 0.19
3 2 -18 0.02 0.18
-3 2 18 0.24 0.22
-3 2 18 0.26 0.2
-3 2 18 0.39 0.21
3 2 -18 0.18 0.19
3 2 -18 0.39 0.2
3 2 -18 0.23 0.19
3 2 -18 0.17 0.18
3 2 -18 0.23 0.19
3 2 -18 0.27 0.19
2 -2 -18 84.4 4.99
2 -2 -18 78.92 4.85
2 -2 -18 85.82 4.98
2 -2 -18 87.14 4.98
2 -2 -18 88.52 5.16
2 -2 -18 77.88 4.98
-2 2 18 97.56 5.63
-2 2 18 100.27 5.59
2 2 -18 89.57 5.05
2 2 -18 84.81 5.23
2 2 -18 79.55 5.42
-2 2 18 79.96 6.34
2 2 -18 72.81 5.28
-2 2 18 89.75 5
2 2 -18 82.38 5.03
2 2 -18 89.97 5.04
2 2 -18 87.72 5.07
2 2 -18 77.15 4.89
2 2 -18 83.11 4.91
-2 2 18 95.42 5.36
2 2 -18 88.41 5.07
-2 2 18 88.93 6.32
2 2 -18 93.83 5.23
1 -2 -18 3.8 0.39
1 -2 -18 3.78 0.37
1 2 -18 4.85 0.5
1 2 -18 4.12 0.48
1 2 -18 4.82 0.44
1 2 -18 4.49 0.46
1 2 -18 4.04 0.42
-1 2 18 4.9 0.46
1 2 -18 3.62 0.42
1 2 -18 4.16 0.45
1 2 -18 4.26 0.4
1 2 -18 4.69 0.45
-1 2 18 4.72 0.59
1 2 -18 4 0.44
-1 2 18 5 0.52
1 2 -18 4.12 0.5
-1 2 18 4.35 0.52
-1 2 18 5.39 0.63
-1 2 18 4.89 0.53
1 2 -18 4.08 0.44
0 -2 -18 1.58 0.24
0 2 -18 2.86 0.42
0 2 18 2.34 0.46
0 2 18 1.3 0.38
0 2 -18 1.52 0.3
0 2 -18 1.28 0.27
0 2 -18 1.14 0.26
0 2 -18 1.9 0.33
0 2 18 1.15 0.3
0 2 -18 1.24 0.3
0 2 18 1.62 0.36
0 2 -18 1.96 0.35
0 2 -18 1.54 0.3
0 2 -18 1.58 0.29
0 2 18 1.62 0.39
0 2 -18 1.56 0.28
0 2 18 1.61 0.31
-1 -2 -18 3.22 0.35
-1 2 -18 3.58 0.39
1 2 18 4.63 0.44
-1 2 -18 4.49 0.45
-1 2 -18 3.54 0.44
1 2 18 4.91 0.53
-1 2 -18 4.25 0.44
-1 2 -18 4.85 0.49
-1 2 -18 3.8 0.43
1 2 18 4.61 0.58
1 2 18 4.81 0.6
-1 2 -18 4.64 0.47
1 2 18 4.82 0.47
-1 2 -18 3.69 0.43
-1 2 -18 3.86 0.43
1 2 18 4.66 0.59
-2 -2 -18 45.95 3.14
2 2 18 62.21 4.13
-2 2 -18 51.31 3.22
-2 2 -18 57.29 3.19
2 2 18 55.7 3.54
-2 2 -18 56.6 3.37
-2 2 -18 56.64 3.27
2 2 18 58.74 4.04
2 2 18 59.69 3.76
-2 2 -18 52.54 3.24
2 2 18 47.7 3.47
-2 2 -18 55 3.39
2 2 18 60.94 4.15
-2 2 -18 49.52 3.33
-2 2 -18 48.89 3.4
-3 -2 -18 0.43 0.16
-3 -2 -18 0.66 0.19
-3 -2 -18 0.81 0.18
-3 -2 -18 0.63 0.18
3 2 18 1.27 0.28
3 2 18 0.95 0.23
3 2 18 0.95 0.26
3 2 18 0.86 0.23
-3 2 -18 0.74 0.22
3 2 18 0.65 0.2
3 2 18 1.01 0.28
-3 2 -18 0.84 0.22
-3 2 -18 0.64 0.22
-3 2 -18 1.08 0.25
-3 2 -18 1 0.24
-3 2 -18 0.67 0.21
-3 2 -18 1.03 0.24
-4 -2 -18 88.56 4.96
-4 -2 -18 82.16 4.95
-4 -2 -18 87.45 5.13
-4 -2 -18 85.81 4.84
4 2 18 73.29 6.22
4 2 18 86.4 6.19
-4 2 -18 88.4 5.21
-4 2 -18 90.81 4.99
4 2 18 93.22 5.44
4 2 18 83.45 5.56
4 2 18 94.2 5.7
-4 2 -18 86.59 5.27
-4 2 -18 85.62 4.85
-4 2 -18 75.32 5.14
-5 -2 -18 7.03 0.48
-5 -2 -18 7.05 0.48
-5 -2 -18 7.74 0.5
5 2 18 6.88 0.55
-5 2 -18 7.43 0.54
-5 2 -18 7.63 0.54
-5 2 -18 7.17 0.52
5 2 18 7.23 0.56
5 2 18 7.11 0.54
-5 2 -18 6.74 0.5
4 -3 -18 11.17 0.67
4 3 -18 10.34 0.69
-4 3 18 11.69 0.74
4 3 -18 9.91 0.66
4 3 -18 9.49 0.72
4 3 -18 10.41 0.68
-4 3 18 10.79 0.76
4 3 -18 10.58 0.71
3 -3 -18 0.87 0.16
3 -3 -18 0.98 0.16
3 -3 -18 0.97 0.18
3 -3 -18 0.98 0.16
-3 3 18 0.95 0.19
3 3 -18 0.9 0.18
3 3 -18 0.95 0.19
3 3 -18 0.91 0.2
3 3 -18 0.91 0.2
3 3 -18 1 0.2
3 3 -18 1.1 0.2
-3 3 18 0.99 0.22
-3 3 18 0.97 0.21
3 3 -18 1.01 0.19
-3 3 18 1.04 0.21
3 3 -18 0.87 0.19
2 -3 -18 16.85 1.11
2 -3 -18 19.27 1.17
2 -3 -18 15.54 1.06
2 -3 -18 18.65 1.12
2 -3 -18 18.78 1.12
2 3 -18 17.59 1.11
2 3 -18 17.56 1.15
2 3 -18 16.82 1.14
2 3 -18 18.08 1.17
2 3 -18 17.08 1.11
2 3 -18 19.14 1.18
-2 3 18 17.59 1.43
-2 3 18 20.7 1.24
-2 3 18 20.8 1.31
-2 3 18 16.56 1.12
-2 3 18 20.95 1.32
2 3 -18 18.61 1.21
2 3 -18 18.49 1.17
2 3 -18 18.41 1.2
2 3 -18 15.91 1.12
1 -3 -18 2.44 0.27
1 3 -18 2.53 0.34
1 3 -18 2.58 0.35
1 3 -18 2.56 0.3
1 3 -18 2.79 0.35
1 3 -18 3.1 0.35
-1 3 18 2.93 0.41
1 3 -18 2.63 0.33
1 3 -18 3 0.38
1 3 -18 2.36 0.29
1 3 -18 2.87 0.32
-1 3 18 2.82 0.4
-1 3 18 2.75 0.32
-1 3 18 3.28 0.38
1 3 -18 3.1 0.36
-1 3 18 3.09 0.37
1 3 -18 2.77 0.32
0 3 -18 40.31 2.64
0 3 -18 35.83 2.57
0 3 -18 44.54 2.53
0 3 -18 41 2.52
0 3 -18 42.95 2.5
0 3 18 37.46 3.13
0 3 -18 39.81 2.57
0 3 18 44.21 3.23
0 3 -18 41.2 2.48
0 3 18 47.91 3.21
0 3 -18 41 2.62
0 3 -18 45.47 2.56
0 3 -18 44.35 2.65
0 3 18 47.21 2.79
0 3 -18 42.73 2.55
0 3 18 41.86 2.77
-1 -3 -18 5.39 0.42
-1 3 -18 5.46 0.48
1 3 18 6.16 0.62
-1 3 -18 5.07 0.45
-1 3 -18 5.8 0.47
-1 3 -18 6.04 0.5
-1 3 -18 5.47 0.47
1 3 18 6.06 0.49
1 3 18 4.9 0.49
1 3 18 6.15 0.6
1 3 18 6.44 0.6
-1 3 -18 4.65 0.45
-1 3 -18 5.11 0.45
-1 3 -18 6.3 0.49
-1 3 -18 5.78 0.48
-1 3 -18 4.99 0.44
-2 -3 -18 27.87 1.6
2 3 18 26.45 1.85
-2 3 -18 23.63 1.65
-2 3 -18 22.88 1.69
2 3 18 27.95 2.01
-2 3 -18 25.45 1.7
-2 3 -18 27.23 1.63
-2 3 -18 27.32 1.6
2 3 18 29.19 2.08
-2 3 -18 26.1 1.66
-2 3 -18 26.98 1.62
-2 3 -18 26.74 1.69
2 3 18 28.73 2.06
-3 -3 -18 4.46 0.36
-3 -3 -18 5 0.37
-3 -3 -18 5.64 0.39
-3 3 -18 4.35 0.38
-3 3 -18 4.3 0.38
3 3 18 4.67 0.45
3 3 18 5.22 0.44
-3 3 -18 4.61 0.39
3 3 18 4.95 0.47
-3 3 -18 4.57 0.39
6 0 -19 -0.09 0.1
6 0 -19 -0.05 0.11
6 0 -19 0.03 0.12
6 0 -19 -0.02 0.11
6 0 -19 0.02 0.12
5 0 -19 113.28 7.13
5 0 -19 102.12 6.67
5 0 -19 122.47 6.73
5 0 -19 124.95 6.59
5 0 -19 119.85 7.3
5 0 -19 118.86 6.95
4 0 -19 0.16 0.14
4 0 -19 0.25 0.15
4 0 -19 0.04 0.12
4 0 -19 0.05 0.16
4 0 -19 -0.07 0.11
4 0 -19 0.22 0.17
4 0 -19 0.07 0.14
3 0 -19 3.91 0.39
3 0 -19 4.59 0.38
3 0 -19 4.41 0.38
3 0 -19 3.66 0.41
3 0 -19 4.52 0.39
3 0 -19 3.76 0.39
3 0 -19 4.27 0.41
2 0 -19 0.14 0.14
-2 0 19 0.08 0.22
-2 0 19 0.11 0.21
-2 0 19 -0.14 0.2
-2 0 19 0.07 0.19
2 0 -19 -0.02 0.12
2 0 -19 0.03 0.13
-2 0 19 0.25 0.2
2 0 -19 -0.09 0.12
-2 0 19 0.03 0.21
2 0 -19 0.12 0.14
2 0 -19 0.03 0.14
2 0 -19 0.17 0.16
-2 0 19 0.19 0.23
1 0 -19 61.26 3.42
1 0 -19 60.43 3.4
1 0 -19 55.84 3.39
1 0 -19 61.57 3.39
-1 0 19 56.27 4.44
1 0 -19 57.08 3.37
1 0 -19 60.82 3.51
-1 0 19 55.46 4.67
-1 0 19 48.21 4.36
1 0 -19 60.1 3.53
0 0 -19 -0.12 0.12
0 0 -19 0.04 0.18
0 0 19 -0.11 0.22
0 0 -19 0.14 0.16
0 0 -19 -0.06 0.12
0 0 19 0.12 0.2
0 0 -19 -0.03 0.12
0 0 -19 0 0.15
0 0 19 0.04 0.19
0 0 19 0.12 0.16
0 0 19 0.06 0.2
0 0 -19 -0.08 0.14
0 0 19 0.06 0.14
0 0 -19 -0.07 0.11
-1 0 -19 336.17 17.58
-1 0 -19 305.5 17.98
1 0 19 315.61 24.67
1 0 19 280.69 23.35
-1 0 -19 331.87 17.97
1 0 19 298.28 23.22
-1 0 -19 342.13 18.67
-1 0 -19 319.9 21.8
-1 0 -19 273.6 22.96
-1 0 -19 349.32 18.04
-1 0 -19 318.6 17.87
-2 0 -19 0.02 0.14
-2 0 -19 0.05 0.13
-2 0 -19 0.05 0.15
-2 0 -19 0.27 0.15
-2 0 -19 -0.01 0.15
-2 0 -19 0.27 0.16
-2 0 -19 0.1 0.14
-3 0 -19 1.36 0.26
-3 0 -19 1.37 0.27
-3 0 -19 1.89 0.29
-3 0 -19 1.38 0.27
-3 0 -19 1.05 0.21
-3 0 -19 1.44 0.27
4 0 19 -0.02 0.13
4 0 19 0.55 0.18
-4 0 -19 0.13 0.16
4 0 19 0.06 0.12
-4 0 -19 0.51 0.18
4 0 19 0.59 0.17
-4 0 -19 0.32 0.16
-4 0 -19 0.18 0.16
-4 0 -19 0.05 0.14
-4 0 -19 0.15 0.16
5 0 19 38.49 2.51
-5 0 -19 40.29 2.35
-5 0 -19 35.28 2.21
5 0 19 38.02 2.43
5 0 19 38.62 2.46
5 0 19 35.1 2.53
-5 0 -19 35.82 2.36
-5 0 -19 39.52 2.19
5 0 19 36.2 2.39
-5 0 -19 39 2.25
-6 0 -19 -0.02 0.1
6 0 19 0.06 0.09
6 0 19 0.05 0.09
-6 0 -19 -0.02 0.1
6 -1 -19 0.2 0.12
6 -1 -19 0.1 0.12
6 -1 -19 0.19 0.1
6 -1 -19 -0.07 0.11
6 -1 -19 0.17 0.11
-6 1 19 0.22 0.11
6 1 -19 0.19 0.13
-6 1 19 0.18 0.12
6 1 -19 0.21 0.11
6 1 -19 0.29 0.14
-6 1 19 0.15 0.13
6 1 -19 0.05 0.11
6 1 -19 0.17 0.11
-6 1 19 0.1 0.11
-6 1 19 0.22 0.13
6 1 -19 0.2 0.12
5 -1 -19 20.94 1.47
5 -1 -19 25.64 1.39
5 -1 -19 25.31 1.42
5 -1 -19 21.68 1.44
5 -1 -19 23.17 1.52
-5 1 19 21.98 1.47
-5 1 19 24.62 1.43
-5 1 19 24.79 1.52
5 1 -19 24.06 1.4
5 1 -19 20.26 1.45
5 1 -19 23.77 1.43
5 1 -19 19.44 1.39
5 1 -19 22.87 1.54
5 1 -19 22.8 1.5
-5 1 19 22.34 1.56
-5 1 19 23.52 1.56
5 1 -19 23 1.47
4 -1 -19 11.82 0.86
4 -1 -19 11.4 0.83
4 -1 -19 12.54 0.8
4 -1 -19 12.73 0.83
4 -1 -19 11.4 0.79
4 1 -19 11.66 0.81
4 1 -19 13.13 0.85
4 1 -19 11.98 0.86
4 1 -19 12.11 0.87
4 1 -19 11.83 0.83
-4 1 19 11.94 0.9
4 1 -19 12.45 0.9
-4 1 19 11.36 0.89
4 1 -19 11.26 0.82
3 -1 -19 64.74 3.64
3 -1 -19 52.32 3.75
3 -1 -19 58.53 3.49
3 -1 -19 64.22 3.43
3 -1 -19 61.4 3.49
3 -1 -19 66.42 3.52
3 1 -19 64.56 3.54
-3 1 19 54.37 3.83
3 1 -19 58.48 3.53
3 1 -19 61.93 3.66
3 1 -19 60.51 3.44
3 1 -19 58.12 3.53
3 1 -19 58.18 3.8
3 1 -19 51.06 3.69
3 1 -19 60.81 3.53
2 -1 -19 -0.15 0.12
2 -1 -19 0.19 0.15
2 -1 -19 0.05 0.14
2 -1 -19 0.01 0.13
2 -1 -19 -0.05 0.12
2 -1 -19 0.08 0.12
2 -1 -19 0.14 0.14
2 1 -19 -0.11 0.15
2 1 -19 0.24 0.17
-2 1 19 0.11 0.14
2 1 -19 0.12 0.15
2 1 -19 -0.09 0.14
2 1 -19 0.03 0.17
2 1 -19 -0.03 0.14
2 1 -19 -0.01 0.15
2 1 -19 0.15 0.16
2 1 -19 -0.01 0.17
1 -1 -19 58.96 3.51
1 -1 -19 65.45 3.53
1 -1 -19 63.09 3.55
1 -1 -19 59.24 3.66
1 -1 -19 56.97 3.63
1 -1 -19 62.38 3.54
1 1 -19 62.94 3.58
1 1 -19 59.59 3.53
1 1 -19 60.25 3.58
1 1 -19 63.39 3.56
1 1 -19 54.67 3.45
1 1 -19 59.7 3.7
1 1 -19 53.37 3.55
1 1 -19 61.8 3.67
0 -1 -19 5.79 0.46
0 -1 -19 5.34 0.47
0 -1 -19 5.39 0.46
0 -1 -19 4.97 0.44
0 -1 -19 5.18 0.44
0 -1 -19 5.31 0.44
0 1 -19 5.26 0.49
0 1 -19 5.06 0.5
0 1 -19 5.38 0.49
0 1 -19 5.43 0.47
0 1 -19 5.88 0.49
0 1 19 4.9 0.49
0 1 -19 4.97 0.47
0 1 -19 5.63 0.5
0 1 -19 5.29 0.47
-1 -1 -19 4.24 0.39
-1 -1 -19 3.63 0.34
-1 -1 -19 3.8 0.36
-1 -1 -19 3.44 0.36
-1 -1 -19 3.61 0.34
-1 -1 -19 3.66 0.36
-1 1 -19 3.2 0.38
-1 1 -19 3.32 0.37
-1 1 -19 3.45 0.4
-1 1 -19 3.23 0.36
1 1 19 3.54 0.38
1 1 19 3.74 0.4
-1 1 -19 3.62 0.4
-1 1 -19 3.16 0.38
1 1 19 3.53 0.47
-1 1 -19 3.48 0.44
-1 1 -19 4.6 0.39
-2 -1 -19 0.56 0.18
-2 -1 -19 -0.01 0.11
-2 -1 -19 0.25 0.14
-2 -1 -19 0.19 0.15
-2 -1 -19 0.11 0.14
-2 -1 -19 0.79 0.2
2 1 19 0.12 0.17
-2 1 -19 0.24 0.17
2 1 19 0.03 0.14
2 1 19 0.09 0.18
-2 1 -19 0.27 0.17
-2 1 -19 0.58 0.2
-2 1 -19 0.38 0.2
-2 1 -19 0.66 0.22
2 1 19 0.23 0.16
2 1 19 0.14 0.16
-2 1 -19 0.38 0.19
-2 1 -19 0.23 0.16
-2 1 -19 0.32 0.19
2 1 19 -0.06 0.16
-3 -1 -19 116.08 6.8
-3 -1 -19 117.32 6.66
-3 -1 -19 112.9 6.8
-3 -1 -19 125.73 6.83
-3 -1 -19 120.28 7.06
-3 1 -19 117.66 6.68
3 1 19 124.75 7.82
-3 1 -19 120.52 6.84
-3 1 -19 120.22 6.84
3 1 19 119.33 8.53
3 1 19 122.09 7.45
-3 1 -19 107.06 7.21
-3 1 -19 118.08 7.07
3 1 19 113.68 7.64
-3 1 -19 113.8 7.13
3 1 19 119.01 8.61
-4 -1 -19 0.32 0.14
-4 -1 -19 0.25 0.13
-4 -1 -19 0.25 0.16
-4 -1 -19 0.01 0.12
-4 -1 -19 0.07 0.13
-4 1 -19 0.64 0.21
4 1 19 0.18 0.15
-4 1 -19 -0.05 0.15
-4 1 -19 0.17 0.15
4 1 19 0.15 0.14
4 1 19 0.09 0.13
4 1 19 0.06 0.14
4 1 19 0.02 0.13
-4 1 -19 0.41 0.18
-4 1 -19 0.09 0.16
-4 1 -19 0.32 0.16
-5 -1 -19 39.42 2.17
-5 -1 -19 35.81 2.21
-5 -1 -19 40.25 2.23
5 -1 19 35.04 2.4
-5 -1 -19 36.71 2.31
5 -1 19 37.25 2.38
5 1 19 37.9 2.53
5 1 19 39.58 2.5
-5 1 -19 36.15 2.16
-5 1 -19 39.46 2.34
-5 1 -19 30.96 2.28
5 1 19 36.43 2.44
-5 1 -19 39.6 2.24
5 1 19 40.88 2.44
-5 1 -19 38.17 2.37
5 -2 -19 24.25 1.36
5 -2 -19 24.39 1.4
5 -2 -19 22.11 1.42
5 -2 -19 21.15 1.49
5 2 -19 23.66 1.41
-5 2 19 24.07 1.54
-5 2 19 22.76 1.54
5 2 -19 23.52 1.38
5 2 -19 20.13 1.45
-5 2 19 25.28 1.51
5 2 -19 22.75 1.49
5 2 -19 21.9 1.38
-5 2 19 25.51 1.42
5 2 -19 23.16 1.45
5 2 -19 23.31 1.53
4 -2 -19 4.28 0.38
4 -2 -19 4.87 0.37
4 -2 -19 4.94 0.39
4 -2 -19 4.66 0.36
4 -2 -19 5.18 0.4
4 2 -19 4 0.38
4 2 -19 5.42 0.46
-4 2 19 4.43 0.43
-4 2 19 4.91 0.42
4 2 -19 4.7 0.41
4 2 -19 5.08 0.44
4 2 -19 4.36 0.42
4 2 -19 4.49 0.41
-4 2 19 4.77 0.47
4 2 -19 4.74 0.42
4 2 -19 3.79 0.39
-4 2 19 4.5 0.43
-4 2 19 4.88 0.45
4 2 -19 4.59 0.41
3 -2 -19 3.62 0.35
3 -2 -19 3.55 0.36
3 -2 -19 3.76 0.35
3 -2 -19 4.12 0.33
3 -2 -19 4.03 0.35
3 2 -19 3.5 0.38
3 2 -19 3.84 0.41
3 2 -19 3.79 0.38
3 2 -19 3.43 0.4
3 2 -19 3.45 0.38
-3 2 19 4.48 0.46
-3 2 19 3.54 0.47
-3 2 19 4.25 0.43
3 2 -19 3.45 0.39
-3 2 19 4.79 0.46
3 2 -19 3.94 0.41
3 2 -19 3.72 0.39
3 2 -19 3.97 0.41
-3 2 19 4.79 0.4
2 -2 -19 5 0.43
2 -2 -19 4.91 0.41
2 -2 -19 4.96 0.44
2 -2 -19 5.54 0.44
2 -2 -19 4.39 0.38
2 -2 -19 4.53 0.4
-2 2 19 5.13 0.44
2 2 -19 4.59 0.47
2 2 -19 5.16 0.44
2 2 -19 4.92 0.5
-2 2 19 5.72 0.62
2 2 -19 4.98 0.46
2 2 -19 4.44 0.47
2 2 -19 4.83 0.49
2 2 -19 4.77 0.44
2 2 -19 5.59 0.5
-2 2 19 4.64 0.56
-2 2 19 6.07 0.56
-2 2 19 5.8 0.56
-2 2 19 5.28 0.5
2 2 -19 4.88 0.48
2 2 -19 5.06 0.46
1 -2 -19 16.67 1.13
1 -2 -19 16.24 1.07
1 -2 -19 14.8 1.11
1 -2 -19 17.91 1.11
1 -2 -19 17.96 1.11
1 2 -19 14.8 1.1
1 2 -19 18.06 1.21
1 2 -19 19.07 1.19
1 2 -19 16.78 1.15
-1 2 19 19.55 1.5
1 2 -19 16.21 1.1
-1 2 19 18.09 1.28
-1 2 19 17.36 1.19
-1 2 19 18.19 1.48
1 2 -19 17.67 1.18
-1 2 19 15.76 1.39
1 2 -19 17.57 1.15
-1 2 19 18.23 1.3
1 2 -19 16.86 1.12
1 2 -19 15.8 1.07
1 2 -19 17.08 1.17
0 -2 -19 0.99 0.21
0 -2 -19 0.93 0.2
0 -2 -19 0.78 0.19
0 -2 -19 0.86 0.21
0 2 -19 0.91 0.28
0 2 19 1.22 0.28
0 2 -19 0.72 0.22
0 2 -19 0.95 0.25
0 2 19 1.49 0.37
0 2 19 0.82 0.31
0 2 -19 1 0.24
0 2 -19 0.75 0.25
0 2 -19 0.9 0.24
0 2 19 0.9 0.26
0 2 -19 1.02 0.25
0 2 19 0.84 0.32
0 2 -19 1.12 0.24
0 2 -19 0.85 0.27
-1 -2 -19 88.69 5.24
-1 -2 -19 86.41 5.24
-1 -2 -19 84.27 5.2
-1 2 -19 77.95 5.55
-1 2 -19 85.17 5.5
1 2 19 90.76 6.05
1 2 19 104.92 6.65
1 2 19 102.34 6.68
-1 2 -19 93.32 5.31
-1 2 -19 90.14 5.18
1 2 19 90.99 5.76
1 2 19 103.83 6.76
-1 2 -19 90.61 5.27
-1 2 -19 86.7 5.3
-1 2 -19 92.97 5.51
-1 2 -19 83.01 5.27
-2 -2 -19 0.71 0.18
-2 -2 -19 0.97 0.2
-2 -2 -19 0.57 0.17
-2 -2 -19 0.99 0.2
-2 -2 -19 0.65 0.17
-2 2 -19 0.71 0.22
-2 2 -19 0.45 0.2
-2 2 -19 1.14 0.25
2 2 19 1 0.29
2 2 19 0.92 0.25
-2 2 -19 0.57 0.22
2 2 19 0.87 0.29
-2 2 -19 0.56 0.21
2 2 19 0.88 0.24
-2 2 -19 0.94 0.22
-2 2 -19 0.82 0.24
2 2 19 0.69 0.25
-2 2 -19 0.75 0.24
-3 -2 -19 8.54 0.61
-3 -2 -19 9.48 0.65
-3 -2 -19 8.33 0.61
-3 -2 -19 9.18 0.63
-3 -2 -19 8.62 0.61
-3 2 -19 9.98 0.67
-3 2 -19 8.07 0.65
-3 2 -19 9.25 0.69
3 2 19 7.93 0.69
-3 2 -19 9.06 0.65
3 2 19 8.56 0.79
-3 2 -19 9.56 0.66
3 2 19 9.37 0.82
3 2 19 9.59 0.72
3 2 19 10.04 0.77
-3 2 -19 8.21 0.66
-3 2 -19 7.77 0.65
-4 -2 -19 4.69 0.35
-4 -2 -19 4.04 0.35
-4 -2 -19 4.65 0.35
-4 -2 -19 4.58 0.35
4 2 19 3.72 0.39
-4 2 -19 3.5 0.37
4 2 19 4.06 0.41
4 2 19 4.12 0.43
-4 2 -19 4.21 0.39
-4 2 -19 4.58 0.39
-4 2 -19 4.28 0.38
4 2 19 4.86 0.4
-4 2 -19 4.2 0.36
3 -3 -19 27.84 1.64
3 -3 -19 29.01 1.65
3 -3 -19 30.01 1.71
3 3 -19 26.25 1.62
3 3 -19 26.61 1.67
3 3 -19 28.33 1.67
3 3 -19 24.63 1.71
-3 3 19 29.58 1.86
3 3 -19 27.44 1.73
-3 3 19 26.88 1.82
-3 3 19 31.23 1.78
3 3 -19 27.49 1.66
3 3 -19 28.31 1.68
2 -3 -19 5.79 0.4
2 -3 -19 5.8 0.42
2 -3 -19 5.02 0.41
2 -3 -19 5.81 0.43
2 3 -19 5.35 0.45
2 3 -19 5.66 0.45
2 3 -19 4.91 0.4
-2 3 19 5.37 0.53
2 3 -19 5.28 0.4
-2 3 19 5.67 0.49
-2 3 19 5.71 0.46
2 3 -19 5.41 0.44
2 3 -19 5.17 0.42
2 3 -19 5.79 0.45
2 3 -19 5.22 0.45
2 3 -19 5.85 0.43
-2 3 19 6.07 0.5
1 -3 -19 29.97 1.96
1 -3 -19 33.46 1.99
1 -3 -19 34.61 2.05
1 -3 -19 36.39 2
1 -3 -19 36 2
1 3 -19 34.46 2.07
1 3 -19 30.68 2
1 3 -19 34.05 2.04
-1 3 19 38.11 2.24
-1 3 19 35.91 2.55
1 3 -19 33.9 2.01
-1 3 19 30.8 2.53
1 3 -19 34.11 2.03
1 3 -19 34.45 2.11
1 3 -19 34.16 2.02
-1 3 19 30.53 2.1
1 3 -19 32.49 1.97
-1 3 19 37.73 2.25
1 3 -19 28.48 2.07
0 -3 -19 2.43 0.26
0 -3 -19 2.03 0.25
0 -3 -19 2.27 0.26
0 -3 -19 2.8 0.26
0 3 19 2.45 0.31
0 3 19 2.41 0.29
0 3 -19 2.45 0.31
0 3 -19 2.42 0.27
0 3 -19 2.46 0.28
0 3 -19 2.28 0.32
0 3 -19 2.17 0.29
0 3 -19 2.61 0.27
0 3 19 2.67 0.37
0 3 19 2.8 0.37
0 3 -19 2.43 0.28
0 3 19 2.14 0.31
0 3 -19 2.07 0.28
0 3 -19 2.29 0.29
0 3 -19 2.66 0.33
-1 -3 -19 2.19 0.27
-1 -3 -19 3.4 0.28
-1 -3 -19 2.75 0.27
-1 -3 -19 3.01 0.29
-1 -3 -19 4.05 0.3
1 3 19 2.88 0.37
1 3 19 2.85 0.3
1 3 19 2.64 0.32
-1 3 -19 3.1 0.32
-1 3 -19 2.93 0.31
-1 3 -19 2.81 0.3
-1 3 -19 3.1 0.31
1 3 19 3.64 0.41
-1 3 -19 2.61 0.29
1 3 19 3.06 0.38
-1 3 -19 2.72 0.31
-1 3 -19 3.39 0.32
-1 3 -19 3.03 0.31
-2 -3 -19 2.95 0.26
-2 -3 -19 2.76 0.24
-2 -3 -19 2.8 0.25
-2 -3 -19 3.04 0.27
-2 3 -19 2.4 0.27
-2 3 -19 2.43 0.27
2 3 19 2.71 0.34
-2 3 -19 2.44 0.27
-2 3 -19 2.69 0.28
-2 3 -19 2.13 0.26
2 3 19 3.1 0.35
2 3 19 2.72 0.3
-2 3 -19 2.2 0.29
2 3 19 2.85 0.31
6 0 -20 9.11 0.65
-6 0 20 9 0.64
6 0 -20 10.39 0.62
6 0 -20 8.31 0.63
-6 0 20 8.89 0.67
6 0 -20 10.48 0.69
6 0 -20 10.38 0.64
5 0 -20 0.36 0.15
5 0 -20 0.11 0.12
5 0 -20 0.2 0.14
5 0 -20 0.32 0.14
5 0 -20 0.22 0.15
5 0 -20 0.18 0.13
4 0 -20 2.88 0.34
4 0 -20 3.45 0.36
4 0 -20 3.02 0.32
4 0 -20 2.98 0.33
4 0 -20 3.12 0.33
4 0 -20 3.78 0.33
3 0 -20 0.12 0.14
3 0 -20 -0.01 0.13
3 0 -20 -0.09 0.12
3 0 -20 -0.07 0.12
3 0 -20 0.28 0.17
3 0 -20 0 0.13
3 0 -20 0.27 0.15
2 0 -20 77.35 4.55
2 0 -20 74.91 4.84
2 0 -20 83.74 4.67
2 0 -20 85.51 4.85
2 0 -20 82.12 4.67
2 0 -20 81.2 4.69
2 0 -20 78.24 4.7
1 0 -20 0.11 0.15
1 0 -20 0.05 0.13
1 0 -20 -0.07 0.12
1 0 -20 0.19 0.15
1 0 -20 0.21 0.15
1 0 -20 -0.07 0.12
1 0 -20 0.07 0.13
0 0 -20 22.76 1.6
0 0 -20 27.11 1.58
0 0 -20 26.72 1.6
0 0 -20 25.42 1.59
0 0 -20 23.32 1.53
0 0 -20 27.06 1.59
0 0 -20 26.53 1.66
-1 0 -20 0.23 0.17
-1 0 -20 0.09 0.14
-1 0 -20 0.51 0.19
-1 0 -20 0.15 0.13
-1 0 -20 0.39 0.19
-1 0 -20 0.32 0.16
-1 0 -20 0.35 0.16
-2 0 -20 3.13 0.33
-2 0 -20 3.88 0.36
-2 0 -20 3.63 0.35
-2 0 -20 3.09 0.37
-2 0 -20 3.22 0.33
-2 0 -20 3.16 0.36
-3 0 -20 0.14 0.17
-3 0 -20 -0.05 0.12
-3 0 -20 0.12 0.16
-3 0 -20 0.07 0.16
-3 0 -20 0.24 0.16
-3 0 -20 0.05 0.15
-4 0 -20 106.93 7
4 0 20 116.75 7.46
-4 0 -20 124.24 6.8
4 0 20 115.97 7.39
4 0 20 120.62 7.74
4 0 20 119.03 7.6
-4 0 -20 118.59 7.08
-4 0 -20 122.9 6.79
4 0 20 105.93 8.42
-4 0 -20 126.63 6.64
5 0 20 0.2 0.11
-5 0 -20 0.18 0.11
5 0 20 0.06 0.1
5 0 20 0.26 0.11
-5 0 -20 -0.12 0.13
-5 0 -20 0.11 0.11
5 0 20 0.01 0.11
-5 0 -20 0.23 0.13
5 0 20 0.07 0.1
-5 0 -20 0.08 0.13
6 -1 -20 14.33 0.86
6 -1 -20 13.93 0.93
6 -1 -20 14.85 0.85
-6 1 20 13.85 0.95
6 1 -20 13.61 0.94
-6 1 20 14.36 0.87
6 1 -20 13.5 0.85
-6 1 20 14.51 0.92
6 1 -20 14.27 0.87
6 1 -20 12.35 0.92
5 -1 -20 1.12 0.19
5 -1 -20 1.5 0.25
5 -1 -20 1.02 0.19
5 -1 -20 1.03 0.18
5 -1 -20 1.2 0.2
5 1 -20 1.11 0.2
5 1 -20 1.14 0.24
-5 1 20 1.23 0.23
-5 1 20 1.19 0.21
-5 1 20 1.73 0.24
-5 1 20 1.49 0.24
5 1 -20 0.95 0.19
5 1 -20 1.06 0.22
5 1 -20 1.05 0.2
-5 1 20 1.26 0.22
5 1 -20 1.02 0.2
4 -1 -20 97.66 5.14
4 -1 -20 101.5 5.26
4 -1 -20 90.61 5.42
4 -1 -20 84.06 5.66
4 -1 -20 87.27 5.22
4 1 -20 95.28 5.45
4 1 -20 89.5 5.7
4 1 -20 90.55 5.25
4 1 -20 93.72 5.27
-4 1 20 87.79 5.74
4 1 -20 82.23 5.56
4 1 -20 93.5 5.15
-4 1 20 92.89 5.83
-4 1 20 90.23 5.24
4 1 -20 85.53 5.25
-4 1 20 90.98 5.58
-4 1 20 90.2 5.76
3 -1 -20 0.13 0.15
3 -1 -20 0.15 0.13
3 -1 -20 0.06 0.12
3 -1 -20 0.08 0.14
3 -1 -20 0.17 0.14
3 -1 -20 0.02 0.11
3 1 -20 0.17 0.15
-3 1 20 0.29 0.14
3 1 -20 0.19 0.16
3 1 -20 0.17 0.16
3 1 -20 -0.01 0.14
3 1 -20 0.01 0.14
-3 1 20 0.02 0.14
3 1 -20 0.15 0.16
3 1 -20 0.04 0.15
3 1 -20 0.25 0.18
2 -1 -20 3.59 0.37
2 -1 -20 3.76 0.36
2 -1 -20 4.39 0.4
2 -1 -20 3.83 0.34
2 -1 -20 4.89 0.39
2 -1 -20 4.08 0.38
2 1 -20 3.84 0.39
2 1 -20 3.69 0.41
2 1 -20 4.13 0.41
-2 1 20 3.33 0.35
2 1 -20 3.28 0.37
2 1 -20 4.81 0.43
2 1 -20 3.63 0.41
2 1 -20 4.33 0.4
2 1 -20 4.05 0.42
1 -1 -20 8.06 0.63
1 -1 -20 9.61 0.66
1 -1 -20 8.47 0.66
1 -1 -20 9.26 0.67
1 -1 -20 9.78 0.68
1 -1 -20 9.75 0.67
1 1 -20 8.99 0.68
1 1 -20 9.23 0.68
1 1 -20 8.23 0.65
1 1 -20 9.39 0.7
-1 1 20 8.7 0.69
1 1 -20 8.96 0.69
1 1 -20 10 0.71
1 1 -20 8.78 0.71
1 1 -20 8.26 0.65
0 -1 -20 50.9 3.18
0 -1 -20 57.1 3.18
0 -1 -20 55.84 3.32
0 -1 -20 52.15 3.27
0 -1 -20 58.74 3.21
0 -1 -20 57.56 3.22
0 1 -20 52.79 3.14
0 1 20 50.3 3.66
0 1 -20 54.34 3.35
0 1 -20 55.71 3.2
0 1 -20 49.82 3.29
0 1 -20 51.46 3.2
0 1 -20 56.85 3.24
0 1 -20 54.36 3.23
0 1 -20 54.65 3.22
0 1 20 52.96 3.53
-1 -1 -20 0.25 0.14
-1 -1 -20 0.34 0.16
-1 -1 -20 0.6 0.18
-1 -1 -20 0.2 0.15
-1 -1 -20 0.13 0.13
-1 -1 -20 0.13 0.16
1 1 20 0.17 0.15
-1 1 -20 0.23 0.16
1 1 20 0.35 0.2
-1 1 -20 0.34 0.17
-1 1 -20 0.34 0.19
1 1 20 0.26 0.19
-1 1 -20 0.14 0.17
1 1 20 0.16 0.16
-1 1 -20 0.16 0.16
-1 1 -20 0.16 0.18
1 1 20 0.67 0.24
-1 1 -20 0.45 0.2
1 1 20 0.1 0.18
-1 1 -20 0.24 0.21
-2 -1 -20 106.71 6.6
-2 -1 -20 115.24 6.48
-2 -1 -20 122.41 6.66
-2 -1 -20 96.02 6.6
-2 -1 -20 123.95 6.9
-2 -1 -20 121.79 6.65
-2 1 -20 120.09 6.91
2 1 20 113.06 7.25
-2 1 -20 116.25 6.51
2 1 20 126.3 7.64
-2 1 -20 109.57 6.94
2 1 20 122.74 8.43
2 1 20 124.2 8.34
2 1 20 112.32 8.27
2 1 20 97.9 7.4
-2 1 -20 112.62 6.65
-2 1 -20 117.61 6.67
-2 1 -20 112.22 6.66
-3 -1 -20 3.69 0.37
-3 -1 -20 4.75 0.39
-3 -1 -20 4 0.37
-3 -1 -20 4.16 0.39
-3 -1 -20 3.86 0.36
-3 1 -20 3.92 0.4
-3 1 -20 4.3 0.4
3 1 20 4.19 0.47
3 1 20 4.15 0.42
3 1 20 4.3 0.45
3 1 20 4.13 0.42
-3 1 -20 4.51 0.41
-3 1 -20 4.12 0.41
3 1 20 4.1 0.48
-3 1 -20 4.01 0.42
-3 1 -20 3.83 0.41
-4 -1 -20 0.49 0.16
-4 -1 -20 0.98 0.21
-4 -1 -20 0.66 0.17
-4 -1 -20 0.52 0.16
-4 -1 -20 0.7 0.18
-4 1 -20 0.38 0.18
4 1 20 0.73 0.21
-4 1 -20 0.5 0.16
4 1 20 0.47 0.16
4 1 20 0.73 0.18
-4 1 -20 0.49 0.19
-4 1 -20 0.58 0.18
4 1 20 0.59 0.19
4 1 20 0.62 0.17
-4 1 -20 0.56 0.17
5 -1 20 5.59 0.46
-5 -1 -20 6.28 0.44
5 -1 20 5.96 0.46
-5 -1 -20 5.84 0.42
5 -1 20 6.23 0.48
-5 -1 -20 5.72 0.44
-5 -1 -20 6.63 0.43
5 1 20 6.76 0.5
5 1 20 6.49 0.49
-5 1 -20 6.39 0.47
5 1 20 5.99 0.49
-5 1 -20 6.37 0.48
5 1 20 5.59 0.46
-5 1 -20 5.48 0.42
-5 1 -20 5.85 0.45
5 -2 -20 0.2 0.1
5 -2 -20 0.34 0.1
5 -2 -20 0.53 0.11
-5 2 20 0.37 0.13
-5 2 20 0.36 0.15
-5 2 20 0.38 0.12
5 2 -20 0.23 0.12
5 2 -20 0.34 0.12
5 2 -20 0.41 0.14
5 2 -20 0.34 0.13
4 -2 -20 22.64 1.36
4 -2 -20 21.29 1.28
4 -2 -20 22.83 1.32
4 -2 -20 19.67 1.29
4 2 -20 21.41 1.33
4 2 -20 18.1 1.38
4 2 -20 20.71 1.33
-4 2 20 23.3 1.34
4 2 -20 22.41 1.44
-4 2 20 22.77 1.49
4 2 -20 22.57 1.34
4 2 -20 18.38 1.3
-4 2 20 23.74 1.43
4 2 -20 22.26 1.31
-4 2 20 21.59 1.45
4 2 -20 22.35 1.39
3 -2 -20 0.75 0.17
3 -2 -20 0.68 0.16
3 -2 -20 0.96 0.18
3 -2 -20 0.62 0.17
3 -2 -20 0.53 0.15
3 2 -20 0.52 0.18
3 2 -20 0.61 0.21
-3 2 20 0.99 0.25
3 2 -20 0.6 0.18
-3 2 20 0.57 0.18
3 2 -20 0.81 0.21
3 2 -20 0.45 0.2
3 2 -20 0.82 0.21
-3 2 20 0.64 0.22
3 2 -20 0.39 0.21
3 2 -20 0.72 0.18
3 2 -20 0.78 0.2
-3 2 20 0.82 0.22
-3 2 20 0.83 0.25
2 -2 -20 95.69 5.18
2 -2 -20 80.33 5.18
2 -2 -20 88.65 5.17
2 -2 -20 87.82 5.18
2 -2 -20 91.63 5.36
2 2 -20 79.37 5.06
2 2 -20 91.75 5.22
2 2 -20 89.73 5.42
2 2 -20 80.06 5.61
2 2 -20 93.71 5.25
2 2 -20 93.78 5.4
2 2 -20 84.02 5.21
-2 2 20 95.56 6.55
2 2 -20 88.8 5.08
2 2 -20 90.79 5.21
-2 2 20 83.13 6.57
-2 2 20 102.79 5.77
-2 2 20 94.93 5.53
2 2 -20 90.01 5.25
-2 2 20 101.17 5.81
-2 2 20 84.04 5.17
1 -2 -20 5.77 0.47
1 -2 -20 5.66 0.47
1 -2 -20 5.58 0.47
1 -2 -20 5.15 0.46
1 -2 -20 5.35 0.43
1 2 -20 6.17 0.53
-1 2 20 5.7 0.5
-1 2 20 6.41 0.57
-1 2 20 6.55 0.66
1 2 -20 6.21 0.52
1 2 -20 5.83 0.48
1 2 -20 5.43 0.48
-1 2 20 6.9 0.69
-1 2 20 5.17 0.58
-1 2 20 7.27 0.6
1 2 -20 5.32 0.5
1 2 -20 5.69 0.5
1 2 -20 5.79 0.52
1 2 -20 5.42 0.48
1 2 -20 5.97 0.54
0 -2 -20 15.47 1.06
0 -2 -20 15.58 1.08
0 -2 -20 16.23 1.04
0 -2 -20 16.82 1.06
0 -2 -20 17.55 1.06
0 2 -20 15.81 1.1
0 2 20 16.88 1.37
0 2 -20 16.31 1.14
0 2 -20 15.59 1.06
0 2 -20 15.51 1.09
0 2 -20 15.97 1.07
0 2 20 17.47 1.21
0 2 20 17.92 1.43
0 2 20 19.3 1.43
0 2 -20 15.2 1.09
0 2 20 16.8 1.18
0 2 -20 15.61 1.07
0 2 -20 16.8 1.1
0 2 -20 14.15 1.09
-1 -2 -20 6.28 0.51
-1 -2 -20 5.91 0.49
-1 -2 -20 7.39 0.55
-1 -2 -20 7.13 0.53
-1 -2 -20 6.57 0.51
-1 2 -20 7.34 0.56
-1 2 -20 7.07 0.59
-1 2 -20 6.97 0.57
1 2 20 7.82 0.73
-1 2 -20 7.36 0.56
-1 2 -20 5.7 0.54
-1 2 -20 6.39 0.55
1 2 20 7.8 0.72
-1 2 -20 6.76 0.56
1 2 20 6.93 0.64
-1 2 -20 6.7 0.58
1 2 20 7.21 0.59
1 2 20 7.78 0.75
-2 -2 -20 20.64 1.25
-2 -2 -20 16.93 1.14
-2 -2 -20 19.28 1.2
-2 -2 -20 19.61 1.2
-2 -2 -20 17.78 1.17
2 2 20 21.11 1.57
2 2 20 17.96 1.31
-2 2 -20 17.27 1.21
-2 2 -20 16.65 1.26
-2 2 -20 19.83 1.21
2 2 20 22.02 1.57
-2 2 -20 17.6 1.19
2 2 20 21.12 1.42
-2 2 -20 19.86 1.27
-2 2 -20 19.2 1.23
-2 2 -20 19.43 1.27
2 2 20 18 1.49
-3 -2 -20 0.18 0.12
-3 -2 -20 0.11 0.11
-3 -2 -20 -0.06 0.14
-3 -2 -20 0.09 0.1
-3 -2 -20 0.17 0.13
-3 2 -20 0.29 0.17
3 2 20 0.11 0.13
-3 2 -20 0.19 0.17
-3 2 -20 0.34 0.16
3 2 20 0.07 0.13
3 2 20 0.23 0.15
-3 2 -20 0.21 0.16
3 2 20 -0.06 0.13
-3 2 -20 0.37 0.14
-3 2 -20 0.23 0.17
3 2 20 0.17 0.14
-4 -2 -20 53.48 3.35
-4 -2 -20 58.78 3.25
-4 -2 -20 59.9 3.17
-4 -2 -20 51.44 3.23
4 2 20 60.45 3.72
-4 2 -20 54.23 3.17
-4 2 -20 57.78 3.41
4 2 20 59.29 3.55
4 2 20 57.98 4.05
4 2 20 48.88 3.61
-4 2 -20 49.53 3.43
-4 2 -20 60.09 3.26
2 -3 -20 0.05 0.1
2 -3 -20 0.12 0.1
2 -3 -20 0.19 0.1
2 3 -20 0.26 0.13
2 3 -20 0.35 0.14
-2 3 20 0.24 0.13
-2 3 20 0.25 0.14
-2 3 20 0.11 0.15
2 3 -20 0.47 0.14
2 3 -20 0 0.12
2 3 -20 0.12 0.12
2 3 -20 0.08 0.13
1 -3 -20 1.11 0.17
1 -3 -20 1.12 0.17
1 -3 -20 1.15 0.16
1 -3 -20 1.31 0.18
1 3 -20 1.3 0.2
1 3 -20 1.16 0.2
1 3 -20 0.99 0.2
1 3 -20 1.39 0.21
-1 3 20 1.55 0.24
1 3 -20 1.28 0.2
1 3 -20 0.93 0.2
1 3 -20 1.34 0.22
1 3 -20 1.34 0.22
-1 3 20 1.39 0.25
-1 3 20 1.13 0.23
-1 3 20 1.65 0.27
1 3 -20 0.74 0.19
0 -3 -20 30.56 1.69
0 -3 -20 32.53 1.69
0 -3 -20 26.5 1.73
0 -3 -20 31.11 1.67
0 3 -20 26.94 1.68
0 3 20 30.92 1.86
0 3 -20 26.08 1.74
0 3 -20 27.09 1.68
0 3 -20 29.27 1.66
0 3 -20 27.51 1.7
0 3 -20 28.81 1.77
0 3 20 29.86 2.16
0 3 -20 27.74 1.7
0 3 -20 23.39 1.75
0 3 20 31.19 2.14
0 3 20 23.17 2.08
-1 -3 -20 0.2 0.11
-1 -3 -20 0.2 0.11
-1 -3 -20 0.22 0.12
-1 3 -20 0.22 0.13
-1 3 -20 0.27 0.15
1 3 20 0.11 0.14
-1 3 -20 -0.02 0.13
1 3 20 0.26 0.16
1 3 20 0.24 0.16
-1 3 -20 0.4 0.13
-1 3 -20 0.34 0.14
-1 3 -20 0.03 0.13
-2 -3 -20 28.37 1.57
-2 -3 -20 28.64 1.63
2 3 20 25.2 1.98
2 3 20 26.74 1.97
-2 3 -20 23.02 1.55
-2 3 -20 25.2 1.63
-6 0 21 0.08 0.1
-6 0 21 0.09 0.1
6 0 -21 0.04 0.1
6 0 -21 -0.01 0.1
-6 0 21 0.05 0.08
6 0 -21 0.17 0.09
5 0 -21 53.48 3.42
5 0 -21 57.25 3.16
5 0 -21 56.5 3.09
5 0 -21 54.15 3.26
5 0 -21 48.83 3.12
4 0 -21 -0.03 0.12
4 0 -21 0 0.14
4 0 -21 -0.11 0.1
4 0 -21 -0.01 0.14
4 0 -21 0.05 0.14
4 0 -21 0.2 0.13
3 0 -21 42.31 2.6
3 0 -21 45.39 2.7
3 0 -21 45.21 2.6
3 0 -21 40.39 2.59
3 0 -21 42.27 2.52
3 0 -21 46.26 2.6
2 0 -21 0.21 0.16
2 0 -21 0.16 0.16
2 0 -21 0.43 0.16
2 0 -21 0.32 0.17
2 0 -21 0.19 0.14
2 0 -21 0.03 0.14
2 0 -21 0.06 0.13
1 0 -21 25.92 1.72
1 0 -21 29.79 1.74
1 0 -21 28.99 1.81
1 0 -21 30.03 1.76
1 0 -21 25.52 1.7
1 0 -21 28.01 1.74
1 0 -21 29.23 1.79
0 0 -21 0.1 0.15
0 0 -21 0.2 0.17
0 0 -21 0.03 0.13
0 0 -21 0.06 0.15
0 0 -21 0.16 0.15
0 0 -21 -0.06 0.13
0 0 -21 0.14 0.15
-1 0 -21 67.3 4.21
-1 0 -21 75.8 4.44
-1 0 -21 72.2 4.25
-1 0 -21 75.44 4.28
-1 0 -21 69.04 4.16
-1 0 -21 78.38 4.3
-2 0 -21 -0.01 0.12
-2 0 -21 -0.08 0.13
-2 0 -21 -0.07 0.15
-2 0 -21 0.42 0.19
-2 0 -21 -0.06 0.13
-2 0 -21 0.21 0.16
-2 0 -21 -0.03 0.16
-3 0 -21 71.95 4.57
3 0 21 70.61 5.77
3 0 21 77.18 5.05
-3 0 -21 76.34 4.79
-3 0 -21 82.22 4.61
-3 0 -21 85.99 4.62
-3 0 -21 83.98 4.77
-3 0 -21 84.84 4.51
4 0 21 0.06 0.11
4 0 21 0.05 0.11
-4 0 -21 -0.05 0.12
-4 0 -21 0.12 0.13
-4 0 -21 0.29 0.15
4 0 21 0.01 0.13
4 0 21 0.05 0.11
4 0 21 0.01 0.11
-4 0 -21 0.17 0.15
-4 0 -21 0.16 0.13
-5 0 -21 0.48 0.14
5 0 21 0.84 0.16
5 0 21 0.69 0.16
-5 0 -21 0.69 0.14
5 0 21 0.56 0.13
-5 0 -21 0.59 0.15
5 -1 -21 0.07 0.11
5 -1 -21 0.12 0.13
5 -1 -21 0.14 0.11
5 -1 -21 0.24 0.12
5 -1 -21 0.19 0.11
5 1 -21 0.11 0.12
-5 1 21 0.06 0.11
-5 1 21 0.28 0.13
-5 1 21 0.07 0.11
5 1 -21 0.29 0.14
5 1 -21 0.32 0.15
-5 1 21 0.21 0.14
5 1 -21 0.22 0.12
5 1 -21 0.19 0.13
5 1 -21 0.17 0.13
-5 1 21 0.07 0.1
4 -1 -21 3.12 0.3
4 -1 -21 3.64 0.33
4 -1 -21 3.83 0.33
4 -1 -21 3.1 0.34
4 -1 -21 3.81 0.35
4 1 -21 3.69 0.35
-4 1 21 3.65 0.37
4 1 -21 3.7 0.34
-4 1 21 3.94 0.37
-4 1 21 3.85 0.34
4 1 -21 3.61 0.36
-4 1 21 3.11 0.34
4 1 -21 3.6 0.35
4 1 -21 3.33 0.37
4 1 -21 3.33 0.33
-4 1 21 3.61 0.38
3 -1 -21 31.09 1.87
3 -1 -21 32.96 1.93
3 -1 -21 30.48 1.93
3 -1 -21 33.98 2.01
3 -1 -21 33.86 1.94
3 1 -21 33.42 1.96
3 1 -21 30.49 1.9
3 1 -21 32.77 1.96
-3 1 21 29.65 2.42
3 1 -21 33.48 2.03
-3 1 21 31.81 2.14
3 1 -21 29.64 1.94
3 1 -21 29.44 2.08
-3 1 21 34.8 2.08
-3 1 21 31.65 1.93
3 1 -21 34.04 1.96
2 -1 -21 1.97 0.27
2 -1 -21 1.67 0.24
2 -1 -21 1.44 0.23
2 -1 -21 1.46 0.25
2 -1 -21 1.5 0.23
2 -1 -21 1.73 0.26
2 1 -21 1.49 0.26
2 1 -21 1.7 0.28
2 1 -21 1.77 0.29
-2 1 21 1.9 0.26
-2 1 21 1.68 0.33
2 1 -21 0.58 0.23
2 1 -21 1.32 0.26
-2 1 21 1.56 0.28
2 1 -21 1.58 0.29
2 1 -21 1.71 0.31
2 1 -21 1.31 0.24
1 -1 -21 87.27 5.45
1 -1 -21 85.29 5.23
1 -1 -21 96.95 5.25
1 -1 -21 98.25 5.28
1 -1 -21 92.8 5.43
1 -1 -21 90.08 5.28
1 1 -21 93.02 5.31
1 1 -21 84.59 5.25
-1 1 21 98.74 5.85
-1 1 21 84.31 5.55
1 1 -21 92.88 5.27
1 1 -21 93.28 5.3
-1 1 21 86.56 6.59
1 1 -21 87.1 5.49
1 1 -21 95.98 5.46
1 1 -21 87.44 5.29
0 -1 -21 0.74 0.18
0 -1 -21 0.4 0.15
0 -1 -21 0.66 0.19
0 -1 -21 0.8 0.2
0 -1 -21 0.86 0.2
0 -1 -21 0.5 0.19
0 1 -21 0.62 0.21
0 1 -21 0.63 0.2
0 1 -21 0.52 0.19
0 1 21 0.87 0.23
0 1 -21 0.89 0.23
0 1 21 0.93 0.24
0 1 21 0.65 0.25
0 1 21 0.75 0.21
0 1 -21 0.68 0.21
0 1 21 0.55 0.22
0 1 -21 0.98 0.24
0 1 -21 0.79 0.22
0 1 -21 0.78 0.22
-1 -1 -21 8.42 0.65
-1 -1 -21 10.16 0.7
-1 -1 -21 9.63 0.69
-1 -1 -21 9.8 0.68
-1 -1 -21 10.77 0.73
-1 -1 -21 8.84 0.66
-1 1 -21 9.84 0.72
1 1 21 10.65 0.91
1 1 21 8.43 0.73
-1 1 -21 10.17 0.75
-1 1 -21 8.49 0.69
1 1 21 9.28 0.8
1 1 21 10.84 0.76
-1 1 -21 9.44 0.69
-1 1 -21 10.01 0.71
1 1 21 10.91 0.92
-1 1 -21 8.99 0.67
-1 1 -21 9.56 0.7
1 1 21 10.39 0.88
-2 -1 -21 5.77 0.48
-2 -1 -21 5.7 0.45
-2 -1 -21 5.18 0.42
-2 -1 -21 5.9 0.45
-2 -1 -21 5.84 0.47
2 1 21 5.44 0.58
2 1 21 5.96 0.59
2 1 21 5.37 0.53
-2 1 -21 4.97 0.47
-2 1 -21 5.51 0.49
-2 1 -21 5.47 0.46
-2 1 -21 5.41 0.46
2 1 21 4.86 0.54
2 1 21 5.33 0.49
-2 1 -21 5.43 0.5
-2 1 -21 5.7 0.48
-3 -1 -21 22.96 1.51
-3 -1 -21 26.96 1.55
-3 -1 -21 26.49 1.51
-3 -1 -21 25.69 1.59
-3 -1 -21 23.32 1.53
3 1 21 24.04 1.94
3 1 21 22.72 1.71
-3 1 -21 25.88 1.56
-3 1 -21 26.13 1.53
-3 1 -21 24.99 1.6
3 1 21 25.99 1.78
3 1 21 25.97 1.7
-3 1 -21 25.11 1.56
-3 1 -21 24.74 1.62
3 1 21 26.49 1.95
-4 -1 -21 2.82 0.28
-4 -1 -21 3 0.28
-4 -1 -21 3.22 0.3
-4 -1 -21 2.32 0.27
-4 -1 -21 2.97 0.28
4 1 21 2.87 0.31
4 1 21 3 0.31
4 1 21 2.92 0.33
-4 1 -21 2.72 0.3
-4 1 -21 3.41 0.29
4 1 21 3.28 0.33
-4 1 -21 2.66 0.3
4 1 21 2.39 0.28
-4 1 -21 2.77 0.31
-4 1 -21 2.84 0.29
5 -1 21 59.09 4.03
-5 -1 -21 61.75 3.66
-5 -1 -21 64.06 3.58
5 -1 21 64.04 4.11
-5 1 -21 65.01 3.84
-5 1 -21 64.64 3.67
5 1 21 63.1 4.11
5 1 21 67.25 4
4 -2 -21 0.46 0.12
4 -2 -21 0.38 0.12
4 -2 -21 0.42 0.12
4 -2 -21 0.56 0.13
-4 2 21 0.33 0.15
4 2 -21 0.32 0.14
-4 2 21 0.43 0.13
4 2 -21 0.3 0.13
4 2 -21 0.36 0.13
4 2 -21 0.26 0.14
4 2 -21 0.26 0.14
-4 2 21 0.39 0.15
4 2 -21 0.48 0.15
-4 2 21 0.56 0.16
3 -2 -21 19.5 1.16
3 -2 -21 19.61 1.17
3 -2 -21 16.63 1.14
3 -2 -21 16.73 1.11
3 -2 -21 20.98 1.22
-3 2 21 19.19 1.17
3 2 -21 16.52 1.21
3 2 -21 18.39 1.15
3 2 -21 20.08 1.2
3 2 -21 19.96 1.24
-3 2 21 19.87 1.27
-3 2 21 17.2 1.45
-3 2 21 20.99 1.32
-3 2 21 20.98 1.34
3 2 -21 18.66 1.19
3 2 -21 19.73 1.2
3 2 -21 17.38 1.26
3 2 -21 19.29 1.19
2 -2 -21 0.72 0.17
2 -2 -21 0.72 0.15
2 -2 -21 0.69 0.16
2 -2 -21 0.65 0.17
2 -2 -21 0.56 0.16
-2 2 21 1.14 0.24
2 2 -21 0.62 0.18
-2 2 21 1.49 0.27
2 2 -21 0.83 0.23
2 2 -21 0.8 0.21
2 2 -21 0.74 0.2
2 2 -21 0.64 0.2
2 2 -21 0.22 0.18
2 2 -21 0.6 0.19
-2 2 21 1.2 0.26
-2 2 21 1.31 0.25
2 2 -21 0.68 0.19
2 2 -21 0.66 0.2
-2 2 21 0.92 0.26
1 -2 -21 1.19 0.2
1 -2 -21 0.93 0.19
1 -2 -21 1.37 0.21
1 -2 -21 0.97 0.2
1 -2 -21 1.38 0.22
1 -2 -21 1.21 0.21
1 2 -21 1.51 0.27
1 2 -21 1.04 0.22
-1 2 21 1.35 0.28
-1 2 21 1.18 0.27
-1 2 21 1.47 0.35
1 2 -21 0.73 0.21
1 2 -21 1.63 0.25
-1 2 21 1.28 0.32
1 2 -21 1.23 0.25
1 2 -21 1.22 0.23
1 2 -21 1.56 0.28
-1 2 21 0.76 0.24
1 2 -21 1.12 0.26
1 2 -21 1.35 0.26
-1 2 21 1.47 0.25
0 -2 -21 2.6 0.28
0 -2 -21 2.5 0.29
0 -2 -21 2.44 0.28
0 -2 -21 2.12 0.27
0 -2 -21 2.51 0.27
0 2 -21 2.75 0.37
0 2 21 2.81 0.34
0 2 21 3.69 0.54
0 2 21 2.56 0.41
0 2 -21 2.47 0.34
0 2 -21 2.6 0.34
0 2 -21 2.34 0.32
0 2 -21 2.29 0.31
0 2 -21 2.82 0.36
0 2 21 3.02 0.42
0 2 -21 2.67 0.33
0 2 21 2.67 0.37
0 2 -21 2.13 0.32
-1 -2 -21 66.27 3.88
-1 -2 -21 68.06 4.03
-1 -2 -21 63.4 3.87
-1 -2 -21 61.29 3.83
-1 -2 -21 68.62 3.9
-1 2 -21 67.96 3.93
1 2 21 74.22 4.99
-1 2 -21 66.93 3.92
-1 2 -21 59.67 4.05
-1 2 -21 66.3 3.91
-1 2 -21 66 3.82
-1 2 -21 65.73 3.89
1 2 21 71.18 4.91
1 2 21 65.8 4.25
1 2 21 63.69 4.45
-1 2 -21 67.93 4.07
1 2 21 72.69 4.9
-2 -2 -21 0.84 0.17
-2 -2 -21 0.12 0.11
-2 -2 -21 0.47 0.16
-2 -2 -21 0.49 0.14
-2 -2 -21 0.58 0.15
-2 2 -21 0.4 0.18
2 2 21 0.54 0.18
2 2 21 0.34 0.15
2 2 21 0.47 0.21
2 2 21 0.45 0.22
2 2 21 0.31 0.16
-2 2 -21 0.51 0.18
-2 2 -21 0.47 0.18
-2 2 -21 0.51 0.16
-2 2 -21 0.38 0.18
-2 2 -21 0.3 0.17
-2 2 -21 0.51 0.16
-3 -2 -21 38.95 2.26
-3 -2 -21 38.91 2.18
-3 -2 -21 33.86 2.16
-3 -2 -21 37.08 2.12
3 2 21 38.66 2.74
3 2 21 38.4 2.51
-3 2 -21 34.73 2.3
-3 2 -21 37.92 2.2
3 2 21 36.38 2.75
-3 2 -21 37.89 2.15
-3 2 -21 35.99 2.29
3 2 21 36.19 2.38
-3 2 -21 35.71 2.19
-4 -2 -21 2.04 0.21
-4 2 -21 1.72 0.25
4 2 21 2.08 0.23
1 -3 -21 34.61 1.93
1 -3 -21 35.71 1.92
1 3 -21 29.23 1.93
-1 3 21 35.48 2.12
-1 3 21 32.81 2.41
1 3 -21 30.99 2
1 3 -21 31.08 1.94
0 -3 -21 10.65 0.61
0 3 -21 9.06 0.62
0 3 -21 9.1 0.64
0 3 -21 8.72 0.6
0 3 21 9 0.8
0 3 21 9.9 0.78
5 0 -22 0.17 0.12
5 0 -22 0.17 0.11
5 0 -22 0.11 0.11
5 0 -22 0.05 0.1
5 0 -22 0.25 0.12
4 0 -22 0.25 0.15
4 0 -22 0.27 0.15
4 0 -22 0.34 0.15
4 0 -22 0.5 0.16
4 0 -22 0.34 0.15
4 0 -22 0.21 0.13
3 0 -22 0.14 0.15
3 0 -22 0.07 0.12
3 0 -22 -0.03 0.11
3 0 -22 0.13 0.13
3 0 -22 0.05 0.14
3 0 -22 0.23 0.13
2 0 -22 85.96 4.73
2 0 -22 87.32 4.91
2 0 -22 82.93 4.75
2 0 -22 80.56 4.72
2 0 -22 79.4 4.75
2 0 -22 73.21 4.9
1 0 -22 0.17 0.13
1 0 -22 0.24 0.16
1 0 -22 0.17 0.15
1 0 -22 0.07 0.14
1 0 -22 0.16 0.13
1 0 -22 0.11 0.14
1 0 -22 0.11 0.15
0 0 -22 84.3 4.75
0 0 -22 72.86 4.89
0 0 -22 85.85 4.81
0 0 -22 85.35 4.97
0 0 -22 83.67 4.78
0 0 -22 81.15 4.79
-1 0 -22 -0.05 0.14
-1 0 -22 0.11 0.13
-1 0 -22 0.02 0.15
-1 0 -22 -0.05 0.13
-1 0 -22 0.01 0.15
-1 0 -22 -0.09 0.14
-1 0 -22 0.06 0.15
-2 0 -22 9.35 0.67
-2 0 -22 8.92 0.64
-2 0 -22 9.15 0.64
-2 0 -22 8.74 0.65
-2 0 -22 7.63 0.6
-2 0 -22 9.02 0.63
-3 0 -22 0.14 0.13
-3 0 -22 0.24 0.13
-3 0 -22 0.21 0.14
3 0 22 0.07 0.13
3 0 22 0.14 0.11
3 0 22 -0.02 0.11
-3 0 -22 -0.07 0.15
-3 0 -22 0.25 0.16
3 0 22 0.1 0.13
3 0 22 0.18 0.15
-3 0 -22 0.17 0.14
3 0 22 0.08 0.11
4 0 22 32.65 2.02
-4 0 -22 33.58 1.77
-4 0 -22 32.36 1.81
4 0 22 27.37 2.21
-4 0 -22 31.22 1.8
-4 0 -22 27.56 1.86
-4 0 -22 26.88 1.83
4 0 22 27.44 1.95
4 0 22 31.36 2.05
4 0 22 31.19 1.96
5 -1 -22 2.33 0.22
5 -1 -22 2.51 0.24
5 -1 -22 2.72 0.24
5 1 -22 2.29 0.26
5 1 -22 2.23 0.24
5 1 -22 2.45 0.26
-5 1 22 2.55 0.24
5 1 -22 2.24 0.24
-5 1 22 2.58 0.26
5 1 -22 2.51 0.24
-5 1 22 2.66 0.25
4 -1 -22 34.46 2
4 -1 -22 27.52 1.97
4 -1 -22 36.2 2.08
4 -1 -22 33.46 1.94
4 -1 -22 32.35 1.98
-4 1 22 36.9 2.14
-4 1 22 32.98 2.19
4 1 -22 35.03 1.96
4 1 -22 31.97 2
4 1 -22 35.13 2.09
-4 1 22 35.15 2.23
4 1 -22 35.37 2.02
4 1 -22 33.16 2
4 1 -22 32.29 2.16
-4 1 22 32.9 1.99
3 -1 -22 3.86 0.35
3 -1 -22 3.54 0.34
3 -1 -22 3.39 0.31
3 -1 -22 3.59 0.33
3 -1 -22 3.74 0.35
-3 1 22 3.81 0.43
-3 1 22 3.96 0.4
3 1 -22 3.45 0.35
-3 1 22 4.27 0.38
3 1 -22 3.69 0.34
3 1 -22 3.41 0.38
3 1 -22 3.7 0.37
3 1 -22 3.6 0.36
-3 1 22 3.84 0.38
3 1 -22 3.97 0.36
-3 1 22 3.74 0.33
2 -1 -22 23.31 1.5
2 -1 -22 23.94 1.49
2 -1 -22 26.05 1.52
2 -1 -22 25.9 1.51
2 -1 -22 25.44 1.56
-2 1 22 27.06 1.71
2 1 -22 24.71 1.52
2 1 -22 23.85 1.54
2 1 -22 21.71 1.45
2 1 -22 25.42 1.54
-2 1 22 23.05 1.9
-2 1 22 26.39 1.69
-2 1 22 25.26 1.61
-2 1 22 23.06 1.91
2 1 -22 25.04 1.59
2 1 -22 24.24 1.53
2 1 -22 23.33 1.58
1 -1 -22 2.71 0.3
1 -1 -22 2.42 0.29
1 -1 -22 2.66 0.3
1 -1 -22 2.75 0.32
1 -1 -22 2.31 0.28
-1 1 22 2.75 0.36
-1 1 22 2.72 0.34
1 1 -22 2.83 0.31
-1 1 22 2.68 0.35
1 1 -22 3.5 0.42
-1 1 22 2.78 0.39
-1 1 22 2.58 0.33
1 1 -22 2.79 0.32
1 1 -22 3.2 0.39
1 1 -22 2.36 0.32
-1 1 22 2.89 0.39
1 1 -22 3.03 0.36
1 1 -22 2.95 0.35
0 -1 -22 34.98 2.02
0 -1 -22 30.62 2.02
0 -1 -22 36.29 2.06
0 -1 -22 35.45 2.04
0 -1 -22 28.68 2.06
0 -1 -22 33.13 2.11
0 1 -22 35.71 2.15
0 1 -22 34.58 2.04
0 1 -22 31.15 1.99
0 1 -22 34 2.06
0 1 22 33.79 2.61
0 1 22 34.18 2.57
0 1 -22 36.37 2.07
0 1 22 31.16 2.23
0 1 22 34.99 2.58
0 1 -22 35.08 2.07
0 1 22 37.48 2.26
0 1 22 31.38 2.32
-1 -1 -22 10.55 0.73
-1 -1 -22 9.46 0.69
-1 -1 -22 9.56 0.69
-1 -1 -22 11.49 0.76
-1 -1 -22 10.31 0.71
-1 -1 -22 10.61 0.73
1 1 22 11.45 0.93
-1 1 -22 10.39 0.73
1 1 22 9.06 0.76
-1 1 -22 10.59 0.74
-1 1 -22 11.47 0.76
1 1 22 10.87 0.94
1 1 22 9.91 0.78
1 1 22 10.61 0.84
-1 1 -22 10.73 0.78
-1 1 -22 10.81 0.75
-1 1 -22 10.27 0.72
1 1 22 11.24 0.96
-2 -1 -22 40.92 2.36
-2 -1 -22 43.12 2.52
-2 -1 -22 35.77 2.38
-2 -1 -22 41.28 2.43
-2 -1 -22 40.75 2.42
2 1 22 37.63 2.63
2 1 22 41.71 2.79
-2 1 -22 42.6 2.53
-2 1 -22 43.02 2.39
2 1 22 39.35 3.01
-2 1 -22 35.27 2.52
2 1 22 44.42 3.07
-2 1 -22 42.88 2.45
-2 1 -22 41.21 2.43
-2 1 -22 39.08 2.43
2 1 22 43.59 3.09
-3 -1 -22 6.46 0.5
-3 -1 -22 6.73 0.49
-3 -1 -22 6.95 0.53
-3 -1 -22 7.41 0.51
-3 -1 -22 7.61 0.53
3 1 22 7.52 0.57
-3 1 -22 7.32 0.53
-3 1 -22 7.44 0.54
-3 1 -22 7.11 0.54
-3 1 -22 6.38 0.54
3 1 22 7.39 0.66
-3 1 -22 7.48 0.52
3 1 22 7.64 0.61
3 1 22 6.63 0.64
3 1 22 6.51 0.55
4 -1 22 32.35 2.37
4 -1 22 35.86 2.3
-4 -1 -22 38.55 2.1
-4 -1 -22 37.3 2.05
-4 -1 -22 34.39 2.09
-4 -1 -22 32.85 2.15
-4 1 -22 35.72 2.2
-4 1 -22 32.57 2.08
-4 1 -22 36.06 2.05
4 1 22 32.29 2.59
4 1 22 34.9 2.34
4 1 22 39.09 2.3
4 1 22 39.55 2.41
-4 1 -22 37.46 2.11
4 -2 -22 0.11 0.09
4 -2 -22 0.16 0.08
4 2 -22 0.36 0.12
-4 2 22 0.21 0.11
4 2 -22 0.05 0.11
4 2 -22 0.16 0.1
-4 2 22 0.12 0.11
3 -2 -22 1.54 0.21
3 -2 -22 1.7 0.21
3 -2 -22 1.47 0.18
3 -2 -22 1.6 0.2
3 2 -22 1.77 0.24
-3 2 22 1.69 0.25
-3 2 22 1.77 0.25
3 2 -22 1.53 0.21
-3 2 22 1.93 0.28
3 2 -22 1.61 0.22
3 2 -22 1.53 0.23
3 2 -22 1.23 0.21
3 2 -22 1.5 0.23
-3 2 22 1.86 0.25
3 2 -22 1.11 0.21
2 -2 -22 33.49 1.95
2 -2 -22 28.61 1.86
2 -2 -22 26.54 1.87
2 -2 -22 33.97 1.89
2 -2 -22 32.06 1.89
2 2 -22 33.4 1.98
-2 2 22 34.07 2.4
2 2 -22 32.01 1.92
2 2 -22 32.67 1.93
-2 2 22 35.5 2.14
2 2 -22 33.32 1.92
2 2 -22 26.6 1.88
2 2 -22 32.25 1.9
-2 2 22 33.94 2.02
-2 2 22 35.33 2.12
-2 2 22 26.65 2.37
2 2 -22 31.74 1.98
1 -2 -22 0.5 0.14
1 -2 -22 0.42 0.15
1 -2 -22 0.55 0.15
1 -2 -22 0.61 0.15
1 -2 -22 0.47 0.16
1 2 -22 0.37 0.17
-1 2 22 0.45 0.18
-1 2 22 0.36 0.21
-1 2 22 0.47 0.17
-1 2 22 0.42 0.17
1 2 -22 0.4 0.16
1 2 -22 0.42 0.16
1 2 -22 0.4 0.17
1 2 -22 0.45 0.17
1 2 -22 0.56 0.17
-1 2 22 0.36 0.18
1 2 -22 0.37 0.16
1 2 -22 0.34 0.17
0 -2 -22 40.96 2.74
0 -2 -22 46.17 2.69
0 -2 -22 44.7 2.78
0 -2 -22 45.9 2.66
0 -2 -22 46.06 2.68
0 2 -22 42.55 2.69
0 2 -22 48.75 2.72
0 2 22 49.74 3.41
0 2 22 44.54 3.37
0 2 -22 46.2 2.72
0 2 -22 47.92 2.73
0 2 -22 44.12 2.64
0 2 22 47.26 2.96
0 2 22 42.02 2.95
0 2 22 50.75 3.46
0 2 -22 46.66 2.83
0 2 -22 44.11 2.67
-1 -2 -22 10.36 0.68
-1 -2 -22 9.09 0.66
-1 -2 -22 9.76 0.66
-1 -2 -22 8.93 0.64
-1 -2 -22 10.92 0.7
1 2 22 9.07 0.72
1 2 22 11.89 0.91
-1 2 -22 9.41 0.7
-1 2 -22 9.95 0.69
-1 2 -22 10.45 0.69
1 2 22 11.18 0.88
1 2 22 10.48 0.88
-1 2 -22 9.45 0.68
-1 2 -22 10.72 0.71
-1 2 -22 10.53 0.73
-1 2 -22 10 0.69
1 2 22 9.53 0.77
-2 -2 -22 3.81 0.32
-2 -2 -22 4.68 0.36
-2 -2 -22 4.26 0.33
-2 -2 -22 3.58 0.31
-2 -2 -22 4.18 0.33
-2 2 -22 4.08 0.36
2 2 22 4.4 0.45
2 2 22 3.97 0.41
-2 2 -22 4.16 0.36
2 2 22 4.15 0.4
-2 2 -22 4.11 0.38
2 2 22 3.97 0.36
-2 2 -22 4.58 0.36
2 2 22 4.12 0.44
-2 2 -22 4.35 0.37
-3 -2 -22 0.62 0.13
-3 -2 -22 0.9 0.15
3 2 22 0.5 0.15
-3 2 -22 0.71 0.16
-3 2 -22 0.6 0.16
-3 2 -22 0.63 0.15
3 2 22 0.55 0.16
5 0 -23 24.2 1.43
-5 0 23 24.44 1.62
5 0 -23 24.91 1.52
-5 0 23 25.13 1.46
5 0 -23 24.49 1.47
4 0 -23 -0.03 0.11
4 0 -23 -0.04 0.11
4 0 -23 0.19 0.12
4 0 -23 -0.07 0.11
4 0 -23 0.02 0.1
3 0 -23 28.26 1.77
3 0 -23 32.56 1.85
3 0 -23 29.31 1.77
3 0 -23 29.72 1.78
3 0 -23 26.67 1.71
3 0 -23 29.91 1.78
2 0 -23 0.21 0.13
2 0 -23 0.17 0.14
2 0 -23 0.2 0.14
2 0 -23 0.19 0.14
2 0 -23 0.24 0.15
2 0 -23 0.05 0.15
1 0 -23 38.45 2.19
1 0 -23 34.98 2.25
1 0 -23 38.56 2.17
1 0 -23 38.06 2.19
1 0 -23 31.01 2.15
1 0 -23 36.02 2.23
0 0 -23 0.15 0.15
0 0 -23 0.2 0.15
0 0 -23 -0.04 0.12
0 0 -23 0.13 0.14
0 0 -23 0.02 0.14
0 0 -23 0.06 0.15
-1 0 -23 26.46 1.61
-1 0 -23 26.43 1.61
-1 0 -23 25.41 1.56
-1 0 -23 26.45 1.67
-1 0 -23 25.03 1.58
-2 0 -23 0.23 0.14
2 0 23 0.05 0.11
-2 0 -23 0.14 0.16
-2 0 -23 0.12 0.14
-2 0 -23 0.12 0.12
2 0 23 0.16 0.14
-2 0 -23 0.02 0.13
3 0 23 66.85 4.6
3 0 23 73.99 4.71
-3 0 -23 72.59 4.03
3 0 23 69.92 5.13
-3 0 -23 72.05 4.13
3 0 23 72.33 4.49
-3 0 -23 70.54 4.26
-3 0 -23 69.77 4.12
4 0 23 0.11 0.1
4 0 23 0.09 0.09
-4 0 -23 0.1 0.12
-4 0 -23 0.09 0.11
-4 0 -23 0.12 0.1
4 0 23 0.04 0.1
4 -1 -23 1.48 0.17
4 -1 -23 1.43 0.21
4 -1 -23 1.65 0.21
4 -1 -23 1.38 0.19
4 1 -23 1.92 0.24
4 1 -23 1.41 0.2
4 1 -23 1.24 0.2
4 1 -23 1.43 0.21
4 1 -23 1.84 0.23
-4 1 23 1.67 0.23
-4 1 23 1.38 0.21
-4 1 23 1.52 0.22
-4 1 23 1.28 0.19
3 -1 -23 8.45 0.57
3 -1 -23 8.24 0.59
3 -1 -23 8.11 0.56
3 -1 -23 7.88 0.56
3 -1 -23 7.07 0.52
-3 1 23 8.42 0.61
3 1 -23 7.66 0.55
3 1 -23 6.81 0.56
3 1 -23 8.05 0.58
-3 1 23 8.77 0.64
-3 1 23 7.15 0.55
3 1 -23 8.46 0.58
-3 1 23 9.02 0.65
3 1 -23 8.36 0.61
-3 1 23 8.21 0.7
3 1 -23 8.08 0.57
2 -1 -23 1.04 0.21
2 -1 -23 0.83 0.19
2 -1 -23 0.76 0.18
2 -1 -23 0.93 0.18
2 -1 -23 1.07 0.2
2 1 -23 0.84 0.21
2 1 -23 0.85 0.21
2 1 -23 0.97 0.2
-2 1 23 1.12 0.22
2 1 -23 1.04 0.2
-2 1 23 0.87 0.21
-2 1 23 0.85 0.2
-2 1 23 0.95 0.24
-2 1 23 1.12 0.26
2 1 -23 1.01 0.23
2 1 -23 0.8 0.2
1 -1 -23 62.15 3.59
1 -1 -23 63.47 3.58
1 -1 -23 59.82 3.67
1 -1 -23 55.2 3.69
1 -1 -23 61.37 3.55
-1 1 23 63.31 4.49
-1 1 23 55.75 4.45
1 1 -23 60.95 3.73
1 1 -23 64.1 3.6
-1 1 23 62.29 3.95
1 1 -23 63.15 3.61
1 1 -23 58.63 3.68
-1 1 23 62.73 4.54
-1 1 23 63.12 3.93
1 1 -23 57.54 3.58
1 1 -23 65.33 3.58
0 -1 -23 0.09 0.15
0 -1 -23 -0.03 0.14
0 -1 -23 0.15 0.14
0 -1 -23 0.06 0.12
0 -1 -23 0.17 0.13
0 1 -23 0.07 0.14
0 1 23 0.22 0.18
0 1 -23 0.2 0.15
0 1 -23 0.56 0.19
0 1 23 0.19 0.16
0 1 23 0.02 0.13
0 1 -23 0.12 0.16
0 1 23 0.04 0.12
0 1 -23 0.14 0.14
0 1 23 -0.05 0.13
0 1 -23 0.05 0.15
-1 -1 -23 83.94 4.79
-1 -1 -23 69.19 4.54
-1 -1 -23 77.74 4.59
-1 -1 -23 78.52 4.61
-1 -1 -23 83.51 4.62
-1 1 -23 76.1 4.6
1 1 23 86.98 5.86
1 1 23 82.71 5.76
-1 1 -23 80.71 4.63
1 1 23 77.86 5.26
1 1 23 82.88 5.78
-1 1 -23 76.35 4.6
-1 1 -23 76.69 4.51
-1 1 -23 84.01 4.81
1 1 23 71.66 5
-1 1 -23 83.06 4.64
-2 -1 -23 0.66 0.17
-2 -1 -23 0.78 0.14
-2 -1 -23 0.51 0.16
-2 -1 -23 0.62 0.15
-2 -1 -23 0.5 0.16
2 1 23 0.68 0.17
-2 1 -23 0.66 0.2
2 1 23 0.58 0.2
-2 1 -23 0.44 0.18
2 1 23 0.6 0.17
-2 1 -23 0.7 0.19
2 1 23 0.84 0.23
2 1 23 0.57 0.2
-2 1 -23 0.54 0.19
-2 1 -23 0.86 0.2
-2 1 -23 0.84 0.18
-3 -1 -23 8.11 0.54
-3 -1 -23 9.13 0.57
-3 -1 -23 8.45 0.57
-3 -1 -23 6.99 0.53
-3 -1 -23 6.81 0.54
-3 1 -23 8.59 0.57
-3 1 -23 7.91 0.57
-3 1 -23 7.55 0.57
3 1 23 6.62 0.59
3 1 23 9 0.65
3 1 23 7.57 0.68
-3 1 -23 8.62 0.55
3 1 23 8.93 0.71
-3 1 -23 8.79 0.58
3 1 23 8.54 0.61
4 -1 23 2.22 0.23
-4 -1 -23 1.83 0.21
4 -1 23 2.18 0.22
4 1 23 2.23 0.23
-4 1 -23 2.04 0.22
4 1 23 2.29 0.25
-4 1 -23 2.08 0.22
3 -2 -23 24 1.45
3 -2 -23 24.65 1.51
3 2 -23 20.9 1.47
3 2 -23 24.63 1.52
-3 2 23 26.54 1.64
3 2 -23 25.34 1.47
-3 2 23 25.18 1.57
-3 2 23 25.92 1.62
3 2 -23 23.68 1.47
3 2 -23 25.17 1.48
2 -2 -23 5.28 0.4
2 -2 -23 5.64 0.41
2 -2 -23 5.31 0.38
2 -2 -23 4.57 0.38
2 -2 -23 5.8 0.4
2 2 -23 5.45 0.42
2 2 -23 5.68 0.43
2 2 -23 4.49 0.4
-2 2 23 4.96 0.43
2 2 -23 5.83 0.43
-2 2 23 6.07 0.47
-2 2 23 6.23 0.47
2 2 -23 5.08 0.4
2 2 -23 5.24 0.43
-2 2 23 4.67 0.48
2 2 -23 6.03 0.43
-2 2 23 5.99 0.52
1 -2 -23 1.06 0.17
1 -2 -23 0.88 0.17
1 -2 -23 1.06 0.17
1 -2 -23 1.2 0.19
1 2 -23 1.1 0.19
1 2 -23 1.28 0.21
-1 2 23 0.99 0.23
1 2 -23 1.41 0.22
1 2 -23 0.96 0.19
-1 2 23 1.47 0.28
1 2 -23 0.83 0.19
1 2 -23 1.02 0.21
1 2 -23 1.99 0.24
-1 2 23 1.26 0.21
-1 2 23 1.39 0.24
0 -2 -23 0.1 0.09
0 -2 -23 0.1 0.1
0 -2 -23 0.27 0.13
0 -2 -23 0.13 0.11
0 2 -23 0.24 0.14
0 2 23 0.38 0.15
0 2 23 0.2 0.15
0 2 -23 0.44 0.14
0 2 -23 0 0.12
0 2 -23 0.21 0.16
0 2 23 0.06 0.14
0 2 -23 0.08 0.13
0 2 -23 0.24 0.15
0 2 23 0.17 0.15
0 2 -23 0.16 0.14
-1 -2 -23 24.42 1.46
-1 -2 -23 21.52 1.45
-1 -2 -23 25.18 1.47
-1 -2 -23 25.03 1.52
1 2 23 25.25 1.85
1 2 23 26.51 1.86
1 2 23 27.2 1.89
-1 2 -23 26.44 1.55
-1 2 -23 22.58 1.47
1 2 23 21.16 1.66
-1 2 -23 25.14 1.45
-1 2 -23 24.73 1.49
-1 2 -23 23.87 1.48
-2 -2 -23 0.62 0.13
-2 -2 -23 0.61 0.13
-2 -2 -23 1.02 0.16
-2 2 -23 1.16 0.19
-2 2 -23 0.84 0.17
2 2 23 0.79 0.17
-2 2 -23 0.73 0.16
2 2 23 0.76 0.17
2 2 23 0.87 0.2
4 0 -24 3.47 0.29
4 0 -24 4.13 0.33
4 0 -24 3.09 0.31
-4 0 24 3.98 0.3
4 0 -24 3.59 0.31
4 0 -24 3.62 0.31
3 0 -24 0.07 0.12
3 0 -24 0.12 0.12
3 0 -24 0.13 0.11
3 0 -24 0.17 0.13
3 0 -24 0.08 0.12
2 0 -24 28.45 1.72
2 0 -24 29.18 1.68
2 0 -24 29.73 1.67
2 0 -24 26.78 1.67
2 0 -24 24.75 1.71
2 0 -24 26.04 1.64
1 0 -24 0.18 0.13
1 0 -24 0.11 0.13
1 0 -24 0.42 0.16
1 0 -24 -0.01 0.15
1 0 -24 0.02 0.15
1 0 -24 -0.03 0.12
0 0 -24 63.51 3.74
0 0 -24 62.77 3.59
0 0 -24 58.64 3.56
0 0 -24 59.53 3.59
0 0 -24 62.83 3.61
-1 0 -24 -0.02 0.13
-1 0 -24 0.22 0.12
-1 0 -24 0.03 0.13
-1 0 -24 0.16 0.14
-1 0 -24 0.09 0.12
-2 0 -24 14.45 0.86
-2 0 -24 12.9 0.84
2 0 24 12.81 1.05
2 0 24 11.1 0.9
2 0 24 13.02 0.91
-2 0 -24 13.83 0.89
2 0 24 14.01 1.06
2 0 24 14.99 0.98
-2 0 -24 10.62 0.82
-3 0 -24 0.19 0.11
3 0 24 0.16 0.12
3 0 24 0.06 0.1
3 0 24 0.11 0.1
-3 0 -24 0 0.13
-3 0 -24 0.17 0.12
-3 0 -24 0.4 0.13
3 0 24 0.1 0.11
4 -1 -24 12.89 0.83
4 -1 -24 14.65 0.87
4 -1 -24 12.95 0.83
4 1 -24 13.49 0.84
-4 1 24 13.49 0.91
-4 1 24 13.62 0.93
4 1 -24 13.34 0.84
-4 1 24 13.49 0.88
4 1 -24 13.06 0.87
3 -1 -24 0.2 0.1
3 -1 -24 0.21 0.12
3 -1 -24 0.25 0.12
3 -1 -24 0.22 0.12
3 1 -24 0.05 0.13
-3 1 24 0.08 0.11
3 1 -24 0.25 0.13
3 1 -24 0.32 0.12
3 1 -24 0.07 0.12
-3 1 24 0.14 0.12
-3 1 24 0.13 0.12
-3 1 24 0.06 0.13
3 1 -24 0.17 0.13
2 -1 -24 27.63 1.75
2 -1 -24 31.24 1.76
2 -1 -24 31.97 1.76
2 -1 -24 25.45 1.72
2 -1 -24 29.49 1.81
2 1 -24 29.17 1.77
-2 1 24 27.43 2.21
2 1 -24 28.34 1.83
-2 1 24 30.49 2.21
2 1 -24 29.67 1.82
-2 1 24 27.77 1.84
2 1 -24 30.26 1.77
-2 1 24 31.2 1.96
-2 1 24 31.12 1.95
2 1 -24 31.53 1.78
2 1 -24 27.3 1.74
1 -1 -24 2.02 0.25
1 -1 -24 1.98 0.26
1 -1 -24 1.73 0.24
1 -1 -24 1.92 0.25
1 -1 -24 2.11 0.26
-1 1 24 2.12 0.31
-1 1 24 2.1 0.35
-1 1 24 1.59 0.26
1 1 -24 2.06 0.28
1 1 -24 1.61 0.25
-1 1 24 1.91 0.31
-1 1 24 2.24 0.3
1 1 -24 2.29 0.3
1 1 -24 1.86 0.28
1 1 -24 2.18 0.3
1 1 -24 2.19 0.28
0 -1 -24 0.25 0.13
0 -1 -24 0.21 0.13
0 -1 -24 0.08 0.11
0 -1 -24 0.13 0.12
0 -1 -24 0.16 0.14
0 1 24 0.3 0.15
0 1 -24 0.06 0.14
0 1 24 0.09 0.13
0 1 24 0.54 0.21
0 1 -24 0.23 0.14
0 1 -24 0.14 0.14
0 1 -24 0.17 0.14
0 1 24 0.24 0.15
0 1 -24 0.36 0.15
0 1 -24 0.39 0.15
0 1 24 0.15 0.15
-1 -1 -24 3.28 0.3
-1 -1 -24 3.16 0.31
-1 -1 -24 3.54 0.31
-1 -1 -24 3.64 0.34
1 1 24 3.88 0.41
1 1 24 3.09 0.35
-1 1 -24 3.7 0.35
-1 1 -24 3.16 0.32
-1 1 -24 3.18 0.32
-1 1 -24 3.47 0.33
1 1 24 2.96 0.38
1 1 24 3.43 0.4
-1 1 -24 3.17 0.31
-1 1 -24 3.66 0.33
-2 -1 -24 24.72 1.54
-2 -1 -24 26.01 1.58
-2 -1 -24 27.29 1.65
-2 -1 -24 26.92 1.59
-2 1 -24 23.2 1.57
-2 1 -24 26.89 1.61
2 1 24 23.31 1.71
-2 1 -24 27.8 1.66
2 1 24 28.1 1.83
-2 1 -24 28.22 1.57
2 1 24 28.71 2.01
2 1 24 28.15 2.02
-2 1 -24 25.93 1.59
3 -1 24 1.06 0.17
-3 -1 -24 1.04 0.17
-3 -1 -24 1.22 0.17
-3 -1 -24 1.37 0.19
-3 1 -24 1.27 0.18
3 1 24 1.31 0.21
3 1 24 1.59 0.24
-3 1 -24 1.69 0.21
-3 1 -24 1.81 0.22
3 1 24 1.25 0.18
2 -2 -24 9.71 0.62
2 -2 -24 9.88 0.62
-2 2 24 9.61 0.79
-2 2 24 10.24 0.7
2 2 -24 9.81 0.64
2 2 -24 9.56 0.64
2 2 -24 9.86 0.64
1 -2 -24 0.15 0.09
1 -2 -24 0.15 0.1
1 -2 -24 0.06 0.1
-1 2 24 0.2 0.12
-1 2 24 0.12 0.13
1 2 -24 0.23 0.12
1 2 -24 0.13 0.11
1 2 -24 0.29 0.11
1 2 -24 0.17 0.12
-1 2 24 0.41 0.16
1 2 -24 0.1 0.12
0 -2 -24 38.35 2.22
0 -2 -24 37.08 2.3
0 -2 -24 38.97 2.22
0 -2 -24 34.95 2.2
0 2 -24 39.98 2.24
0 2 -24 37.86 2.23
0 2 24 36.07 2.43
0 2 24 41.1 2.83
0 2 -24 39.87 2.32
0 2 24 40.98 2.79
0 2 -24 36.61 2.22
0 2 -24 34.24 2.17
-1 -2 -24 0.34 0.1
-1 -2 -24 0.23 0.12
1 2 24 0.31 0.14
-1 2 -24 0.28 0.12
-1 2 -24 0.57 0.13
1 2 24 0.2 0.12
-1 2 -24 0.45 0.14
1 2 24 0.4 0.15
-4 0 25 0.08 0.1
4 0 -25 -0.07 0.09
3 0 -25 36.96 2.24
3 0 -25 40.95 2.26
-3 0 25 35.91 2.37
3 0 -25 40.76 2.34
3 0 -25 37.73 2.26
2 0 -25 0.07 0.11
2 0 -25 0.02 0.11
-2 0 25 0.06 0.13
2 0 -25 0.08 0.14
2 0 -25 0.01 0.11
2 0 -25 0 0.11
1 0 -25 23.7 1.38
1 0 -25 22.76 1.36
1 0 -25 22.81 1.38
1 0 -25 22.28 1.42
1 0 -25 19.86 1.38
0 0 -25 0.13 0.13
0 0 -25 0.11 0.13
0 0 -25 0.15 0.14
0 0 -25 0.17 0.14
0 0 -25 0.09 0.12
0 0 25 0.12 0.11
1 0 25 0.29 0.15
-1 0 -25 0.14 0.13
1 0 25 0.5 0.15
-1 0 -25 0.22 0.13
-1 0 -25 0.03 0.11
1 0 25 0.06 0.1
1 0 25 0.28 0.14
-1 0 -25 0.25 0.14
-1 0 -25 0.06 0.1
-2 0 -25 0.18 0.12
-2 0 -25 0.11 0.11
2 0 25 0.21 0.11
-2 0 -25 0.26 0.13
2 0 25 0.11 0.11
-2 0 -25 0.16 0.1
2 0 25 0.1 0.11
2 0 25 0.02 0.12
3 0 25 58.5 3.66
3 0 25 56.73 3.49
-3 0 -25 50.15 3.13
-3 0 -25 56.07 3.21
3 -1 -25 0.4 0.12
3 -1 -25 0.3 0.12
3 -1 -25 0.37 0.12
3 1 -25 0.4 0.13
3 1 -25 0.67 0.15
3 1 -25 0.31 0.12
-3 1 25 0.28 0.16
-3 1 25 0.3 0.12
-3 1 25 0.2 0.12
2 -1 -25 5.77 0.4
2 -1 -25 4.92 0.39
2 -1 -25 5.15 0.4
2 -1 -25 6.04 0.41
2 1 -25 5.55 0.42
-2 1 25 5.84 0.51
2 1 -25 5 0.41
-2 1 25 5.52 0.45
2 1 -25 4.98 0.41
2 1 -25 5.27 0.4
2 1 -25 4.95 0.42
-2 1 25 4.88 0.49
-2 1 25 5.77 0.44
1 -1 -25 21.01 1.25
1 -1 -25 17.97 1.27
1 -1 -25 21.84 1.25
1 -1 -25 20.89 1.23
1 -1 -25 18.15 1.25
-1 1 25 18.59 1.53
1 1 -25 21.63 1.3
1 1 -25 18.59 1.23
-1 1 25 18.63 1.35
-1 1 25 21.04 1.37
-1 1 25 22.56 1.57
1 1 -25 21.11 1.26
-1 1 25 22.15 1.59
1 1 -25 21.39 1.26
1 1 -25 20.24 1.24
0 -1 -25 0.88 0.17
0 -1 -25 0.47 0.13
0 -1 -25 0.61 0.15
0 -1 -25 0.61 0.14
0 -1 -25 0.59 0.16
0 1 25 0.63 0.18
0 1 -25 0.63 0.15
0 1 25 0.78 0.21
0 1 -25 0.64 0.16
0 1 -25 0.64 0.16
0 1 -25 0.64 0.17
0 1 -25 0.79 0.18
0 1 25 0.91 0.21
0 1 25 0.59 0.15
0 1 -25 0.63 0.16
0 1 25 0.61 0.19
-1 -1 -25 42.91 2.7
-1 -1 -25 47.86 2.73
-1 -1 -25 42.35 2.71
-1 -1 -25 49.28 2.83
1 1 25 44.88 3.1
1 1 25 46.73 3.4
1 1 25 53.78 3.48
1 1 25 49.21 3.42
-1 1 -25 47.29 2.74
-1 1 -25 39.23 2.71
-1 1 -25 49.36 2.84
-1 1 -25 47.83 2.67
-1 1 -25 47.05 2.73
-2 -1 -25 4.43 0.34
-2 -1 -25 5.09 0.36
-2 -1 -25 4.15 0.33
2 1 25 4.34 0.42
-2 1 -25 4.71 0.36
2 1 25 4.55 0.43
-2 1 -25 4.36 0.35
-2 1 -25 3.82 0.34
2 1 25 4.77 0.4
3 0 -26 0.13 0.1
-3 0 26 0.17 0.1
-2 0 26 0.3 0.13
2 0 -26 0.15 0.11
2 0 -26 0 0.1
2 0 -26 0.01 0.1
2 0 -26 0.02 0.11
-2 0 26 -0.02 0.11
1 0 -26 0.09 0.12
1 0 -26 0.1 0.1
-1 0 26 0.13 0.12
1 0 -26 0.08 0.12
1 0 -26 0.1 0.11
-1 0 26 0.02 0.09
0 0 -26 32.24 2.05
0 0 -26 29.72 2.03
0 0 26 37.4 2.61
0 0 26 31.9 2.33
0 0 26 36.73 2.57
0 0 -26 37.52 2.07
0 0 -26 35.65 2.06
0 0 26 36.35 2.57
0 0 -26 36.87 2.14
-1 0 -26 -0.05 0.11
1 0 26 0.04 0.12
-1 0 -26 0.11 0.1
-1 0 -26 0.07 0.11
1 0 26 0.04 0.1
1 0 26 0.03 0.1
2 0 26 37.7 2.42
-2 0 -26 35.3 2.2
-2 0 -26 35.83 2.13
2 0 26 36.29 2.65
2 -1 -26 46.54 2.75
2 -1 -26 46.57 2.73
2 1 -26 44.62 2.74
-2 1 26 49.14 3.44
-2 1 26 49.83 3.01
2 1 -26 47.69 2.77
2 1 -26 47.75 2.76
1 -1 -26 1.08 0.16
1 -1 -26 1.05 0.17
1 -1 -26 1.2 0.17
1 1 -26 1.16 0.18
-1 1 26 1 0.2
1 1 -26 0.97 0.18
1 1 -26 1.11 0.17
-1 1 26 1.32 0.24
-1 1 26 1.1 0.19
0 -1 -26 10.51 0.67
0 -1 -26 11.12 0.68
0 -1 -26 10.37 0.7
0 1 -26 9.74 0.68
0 1 -26 10.64 0.69
0 1 26 10.36 0.85
0 1 -26 9.71 0.68
0 1 26 11.45 0.87
0 1 26 11.44 0.88
0 1 -26 10.99 0.72
-1 -1 -26 2.46 0.23
-1 -1 -26 2.54 0.24
1 1 26 2.69 0.29
1 1 26 2.59 0.3
-1 1 -26 2.33 0.24
-1 1 -26 2.48 0.26
1 0 -27 26.26 1.57
-1 0 27 26.71 1.96
-1 0 27 27 1.99
1 0 -27 26.47 1.58
0 0 27 0.11 0.11
0 0 -27 0.12 0.11
