#------------------------------------------------------------------------------
#$Date: 2019-11-11 19:58:43 +0200 (Mon, 11 Nov 2019) $
#$Revision: 227179 $
#$URL: file:///home/coder/svn-repositories/cod/cif/4/03/57/4035731.cif $
#------------------------------------------------------------------------------
#
# This file is available in the Crystallography Open Database (COD),
# http://www.crystallography.net/
#
# All data on this site have been placed in the public domain by the
# contributors.
#
data_4035731
loop_
_publ_author_name
'Bhilare, Shatrughn'
'Murthy Bandaru, Siva Sankar'
'Shah, Jagrut'
'Chrysochos, Nicolas'
'Schulzke, Carola'
'Sanghvi, Yogesh S.'
'Kapdi, Anant R.'
_publ_section_title
;
 Pd/PTABS: Low Temperature Etherification of Chloroheteroarenes.
;
_journal_issue                   21
_journal_name_full               'The Journal of organic chemistry'
_journal_page_first              13088
_journal_page_last               13102
_journal_paper_doi               10.1021/acs.joc.8b01840
_journal_volume                  83
_journal_year                    2018
_chemical_formula_moiety         'C14 H9 N3 O3'
_chemical_formula_sum            'C14 H9 N3 O3'
_chemical_formula_weight         267.24
_space_group_crystal_system      monoclinic
_space_group_IT_number           4
_space_group_name_Hall           'P 2yb'
_space_group_name_H-M_alt        'P 1 21 1'
_atom_sites_solution_hydrogens   geom
_audit_creation_method           SHELXL-2016/6
_cell_angle_alpha                90
_cell_angle_beta                 91.47(3)
_cell_angle_gamma                90
_cell_formula_units_Z            2
_cell_length_a                   6.0770(12)
_cell_length_b                   5.3497(11)
_cell_length_c                   18.327(4)
_cell_measurement_reflns_used    6780
_cell_measurement_temperature    170(2)
_cell_measurement_theta_max      59.0
_cell_measurement_theta_min      6.7
_cell_volume                     595.6(2)
_computing_cell_refinement       'X-Area by STOE & Cie GmbH 2010'
_computing_data_collection       'X-Area by STOE & Cie GmbH 2010'
_computing_data_reduction        'X-Area by STOE & Cie GmbH 2010'
_computing_molecular_graphics    'XP Version 5.1 by Bruker AXS 1998'
_computing_publication_material  'CIFTAB (Sheldrick, 2016)'
_computing_structure_refinement  'SHELXL-2016 (Sheldrick, 2016)'
_computing_structure_solution    'SHELXT-2016 (Sheldrick, 2016)'
_diffrn_ambient_temperature      170(2)
_diffrn_detector_area_resol_mean 6.67
_diffrn_measured_fraction_theta_full 0.998
_diffrn_measured_fraction_theta_max 0.999
_diffrn_measurement_device_type  'STOE IPDS2T'
_diffrn_measurement_method       \w
_diffrn_radiation_type           MoK\a
_diffrn_radiation_wavelength     0.71073
_diffrn_reflns_av_R_equivalents  0.1095
_diffrn_reflns_av_unetI/netI     0.0942
_diffrn_reflns_Laue_measured_fraction_full 0.998
_diffrn_reflns_Laue_measured_fraction_max 0.999
_diffrn_reflns_limit_h_max       7
_diffrn_reflns_limit_h_min       -7
_diffrn_reflns_limit_k_max       6
_diffrn_reflns_limit_k_min       -6
_diffrn_reflns_limit_l_max       22
_diffrn_reflns_limit_l_min       -19
_diffrn_reflns_number            5069
_diffrn_reflns_point_group_measured_fraction_full 0.999
_diffrn_reflns_point_group_measured_fraction_max 0.999
_diffrn_reflns_theta_full        25.242
_diffrn_reflns_theta_max         26.352
_diffrn_reflns_theta_min         3.336
_diffrn_source                   'fine-focus sealed tube'
_exptl_absorpt_coefficient_mu    0.108
_exptl_absorpt_correction_type   none
_exptl_crystal_colour            colourless
_exptl_crystal_density_diffrn    1.490
_exptl_crystal_description       prism
_exptl_crystal_F_000             276
_exptl_crystal_size_max          0.110
_exptl_crystal_size_mid          0.084
_exptl_crystal_size_min          0.080
_refine_diff_density_max         0.220
_refine_diff_density_min         -0.249
_refine_diff_density_rms         0.061
_refine_ls_abs_structure_details
;
 Flack x determined using 445 quotients [(I+)-(I-)]/[(I+)+(I-)]
 (Parsons, Flack and Wagner, Acta Cryst. B69 (2013) 249-259).
;
_refine_ls_extinction_method     none
_refine_ls_goodness_of_fit_ref   1.010
_refine_ls_hydrogen_treatment    constr
_refine_ls_matrix_type           full
_refine_ls_number_parameters     181
_refine_ls_number_reflns         2444
_refine_ls_number_restraints     1
_refine_ls_restrained_S_all      1.010
_refine_ls_R_factor_all          0.1167
_refine_ls_R_factor_gt           0.0628
_refine_ls_shift/su_max          0.000
_refine_ls_shift/su_mean         0.000
_refine_ls_structure_factor_coef Fsqd
_refine_ls_weighting_details
'w=1/[\s^2^(Fo^2^)+(0.0943P)^2^] where P=(Fo^2^+2Fc^2^)/3'
_refine_ls_weighting_scheme      calc
_refine_ls_wR_factor_gt          0.1516
_refine_ls_wR_factor_ref         0.1871
_reflns_Friedel_coverage         0.801
_reflns_Friedel_fraction_full    1.000
_reflns_Friedel_fraction_max     1.000
_reflns_number_gt                1442
_reflns_number_total             2444
_reflns_threshold_expression     'I > 2\s(I)'
_cod_data_source_file            jo8b01840_si_004.cif
_cod_data_source_block           3n
_cod_original_sg_symbol_H-M      'P 21'
_cod_database_code               4035731
_shelx_shelxl_version_number     2016/6
_shelx_space_group_comment
;
The symmetry employed for this shelxl refinement is uniquely defined
by the following loop, which should always be used as a source of
symmetry information in preference to the above space-group names.
They are only intended as comments.
;
_shelx_estimated_absorpt_t_min   0.988
_shelx_estimated_absorpt_t_max   0.991
_shelx_res_file
;
TITL SIV-01-249 in P21
    shelx.res
    created by SHELXL-2016/6 at 15:17:04 on 28-Mar-2018
CELL  0.71073   6.0770   5.3497  18.3270   90.000   91.470   90.000
ZERR     2.00   0.0012   0.0011   0.0040    0.000    0.030    0.000
LATT  -1
SYMM  - X, 1/2 + Y, - Z
SFAC  C    H    N    O
UNIT  28 18 6 6
MERG   2
EQIV $1 x-1, y-1, z
EQIV $2 -x+2, y-1/2, -z
HTAB C10 O3_$1
HTAB C12 O3_$2
FMAP   2
PLAN -5
SIZE     0.080   0.084   0.110
ACTA
BOND   $H
CONF
LIST   4
L.S.  24
TEMP  -103.00
WGHT    0.094300
FVAR       0.28653
MOLE    1
O1    4    0.234128    0.909962    0.208669    11.00000    0.04206    0.04331 =
         0.05640    0.01170    0.01308    0.00373
O2    4    0.925355    1.385337    0.188038    11.00000    0.05744    0.05125 =
         0.07385   -0.02108    0.00288   -0.01113
O3    4    1.061414    1.266210    0.085965    11.00000    0.05707    0.05983 =
         0.05730    0.00615    0.01536   -0.02121
N1    3    0.020605    0.623563    0.367045    11.00000    0.05013    0.04212 =
         0.05444   -0.00642    0.01351   -0.00274
N2    3    0.396347    0.603774    0.279919    11.00000    0.04601    0.03533 =
         0.04486   -0.00120    0.00870   -0.00331
N3    3    0.923738    1.252460    0.133961    11.00000    0.04607    0.03309 =
         0.05630    0.00509   -0.00002   -0.00935
C1    1    0.045083    0.767180    0.311192    11.00000    0.04456    0.03681 =
         0.04924   -0.00064    0.01014    0.00013
AFIX  43
H1    2   -0.066232    0.885972    0.299151    11.00000   -1.20000
AFIX   0
C2    1    0.185981    0.455943    0.381837    11.00000    0.04920    0.03776 =
         0.03795   -0.00510    0.00711   -0.01260
C3    1    0.170577    0.287802    0.440918    11.00000    0.05750    0.04909 =
         0.04643   -0.00054    0.01186   -0.01134
AFIX  43
H3    2    0.045595    0.293285    0.470969    11.00000   -1.20000
AFIX   0
C4    1    0.332607    0.118219    0.455256    11.00000    0.06565    0.04545 =
         0.04930    0.00701    0.00324   -0.01135
AFIX  43
H4    2    0.318092    0.003520    0.494412    11.00000   -1.20000
AFIX   0
C5    1    0.520155    0.111350    0.412878    11.00000    0.06456    0.03986 =
         0.05271    0.00096   -0.00016   -0.00353
AFIX  43
H5    2    0.632593   -0.007843    0.423180    11.00000   -1.20000
AFIX   0
C6    1    0.541953    0.276845    0.356351    11.00000    0.05209    0.03450 =
         0.04781   -0.00356    0.00464   -0.00109
AFIX  43
H6    2    0.671980    0.275065    0.328665    11.00000   -1.20000
AFIX   0
C7    1    0.376035    0.446903    0.339171    11.00000    0.04734    0.03339 =
         0.03886   -0.00069    0.00639   -0.00620
C8    1    0.233016    0.752466    0.267469    11.00000    0.04772    0.03236 =
         0.04623    0.00063    0.00701   -0.00220
C9    1    0.416505    0.895807    0.163770    11.00000    0.03969    0.03190 =
         0.05058    0.01035    0.00708    0.00147
C10   1    0.427002    0.713808    0.111478    11.00000    0.04753    0.03437 =
         0.05775    0.00449    0.00524   -0.00307
AFIX  43
H10   2    0.313731    0.592080    0.106690    11.00000   -1.20000
AFIX   0
C11   1    0.605303    0.709089    0.065448    11.00000    0.05382    0.02802 =
         0.05643   -0.00563    0.00353   -0.00184
AFIX  43
H11   2    0.613557    0.583888    0.028859    11.00000   -1.20000
AFIX   0
C12   1    0.768618    0.883390    0.072532    11.00000    0.04509    0.03550 =
         0.04372    0.00083    0.00730    0.00374
AFIX  43
H12   2    0.891677    0.880163    0.041607    11.00000   -1.20000
AFIX   0
C13   1    0.750489    1.064875    0.125866    11.00000    0.03871    0.02568 =
         0.04852    0.00188    0.00046   -0.00238
C14   1    0.574715    1.079880    0.171672    11.00000    0.04457    0.03120 =
         0.04100    0.00483    0.00540   -0.00103
AFIX  43
H14   2    0.562977    1.209635    0.206746    11.00000   -1.20000
AFIX   0
HKLF    4




REM  SIV-01-249 in P21
REM R1 =  0.0628 for    1442 Fo > 4sig(Fo)  and  0.1167 for all    2444 data
REM    181 parameters refined using      1 restraints

END

WGHT      0.0943      0.0000

REM Highest difference peak  0.220,  deepest hole -0.249,  1-sigma level  0.061
Q1    1   0.0597  0.9137  0.1730  11.00000  0.05    0.22
Q2    1   1.1087  1.4497  0.2366  11.00000  0.05    0.19
Q3    1   0.6024  1.0868  0.0879  11.00000  0.05    0.19
Q4    1  -0.1451  0.8054  0.2773  11.00000  0.05    0.19
Q5    1   0.0570  0.0131  0.4138  11.00000  0.05    0.18
;
_shelx_res_checksum              59303
_shelx_hkl_file
;
   1   1  16    4.34    0.34
  -1   0   6    7.94    0.42
  -1   0  15   -0.26    0.34
   0   0  21    2.08    0.37
   1   0  -3   25.86    0.70
   3   0  -6   12.64    0.45
  -2  -1  17    3.45    0.35
   1  -1  -7    0.56    0.36
   4  -1 -10    0.60    0.34
  -3  -2  15    0.84    0.41
   2  -2 -11   26.25    0.45
   3  -2 -12    0.38    0.32
  -2  -3  -4    3.51    0.46
   4  -3 -14   -0.68    0.35
   5  -3 -14    0.28    0.38
  -4  -4  14    0.45    0.49
   0  -4 -11    2.01    0.34
   2  -4 -14    4.00    0.37
   1   1  17    1.18    0.34
   2   1   1   20.62    1.00
   2   1  20   -0.09    0.36
   4   1  -1   19.86    0.97
  -1   0  16   23.91    0.43
  -1   0  17   20.81    0.56
   0   0  22   -0.17    0.39
  -2  -1   4    3.59    0.45
  -2  -1  18    0.30    0.35
   6  -1  -9    0.44    0.41
   7  -1  -8    0.68    0.46
  -3  -2   6    0.22    0.50
  -3  -2  16    1.08    0.41
  -2  -2  -1   10.28    0.66
  -1  -2  -5   45.06    0.60
   4  -2 -12    0.78    0.34
   5  -2 -12   -0.18    0.34
   3  -3 -13    1.19    0.37
  -3  -4  -1    3.76    0.54
  -3  -5  -2    2.81    0.51
   1  -5 -13    1.03    0.38
   2  -5 -14    0.63    0.38
   1   1   4  347.66    1.65
   1   1  18    0.72    0.35
   2   1  21    0.24    0.36
  -1   0   5   16.10    0.53
  -1   0  18   25.30    0.51
   7   0  -4    0.06    0.51
  -2  -1  19    0.11    0.35
   2  -1  -8   42.97    0.51
   3  -1  -9    4.75    0.35
  -3  -2  17    0.48    0.37
   6  -2 -11   -0.48    0.41
  -1  -3  -7    7.24    0.39
   1  -3 -11    2.01    0.33
   2  -3 -12    1.74    0.31
   4  -3 -13    0.79    0.41
   5  -3 -13    1.47    0.40
  -4  -4   7    5.59    0.87
   1  -4 -12    1.97    0.35
   2  -4 -13    5.17    0.40
   3  -4 -14    0.74    0.36
   4  -4 -14    0.43    0.40
  -2  -5  -6    1.04    0.41
  -1  -5  -9    2.59    0.38
   0  -5 -11    2.69    0.35
  -3  -6  -2    0.36    0.45
  -2  -6  -6   -0.29    0.45
  -1  -6  -9    0.49    0.40
   1   1  19    1.23    0.35
  -1   0  19    0.36    0.34
   6   0  -5    0.04    0.44
  -2  -1  20    0.26    0.33
   4  -1  -9    0.08    0.42
   5  -1  -9    3.49    0.34
  -3  -2  18    2.36    0.35
   0  -2  -7   38.40    0.58
   1  -2  -9    0.88    0.33
   3  -2 -11   44.64    0.51
   0  -3  -9    0.37    0.33
  -2  -4  -5   28.70    0.55
  -1  -4  -8    2.06    0.36
   0  -4 -10    0.48    0.38
   4   2  10    1.18    0.40
   4   2  11    1.24    0.43
   4   2  12    1.83    0.46
   4   2  13    1.52    0.45
   4   2  14    2.19    0.45
   5   2  11    1.00    0.47
   5   2  12    0.57    0.47
   0   1  10   18.38    0.44
   0   1  11    3.97    0.35
   0   1  12   13.01    0.38
   0   1  13   -0.04    0.35
   0   1  14    0.31    0.35
   1   1  20    0.63    0.37
  -1   0  20   -0.01    0.33
  -2  -1  21   -0.18    0.35
   6  -1  -8    0.73    0.40
   7  -1  -7    0.17    0.47
  -3  -2   5    0.28    0.60
  -3  -2  19    0.49    0.37
   2  -2 -10    0.37    0.35
   4  -2 -11    4.27    0.35
   5  -2 -11   -0.15    0.34
   3  -4 -13    3.20    0.39
   1  -5 -12    0.49    0.36
   2  -5 -13    5.20    0.40
   3   2  11    7.65    0.45
   3   2  12   13.77    0.51
   3   2  13    7.06    0.47
   4   2   9    1.24    0.40
   4   2  15    0.29    0.37
   4   2  16    0.17    0.42
   5   2   9    0.42    0.47
   5   2  10    0.57    0.44
   5   2  13    0.73    0.44
   5   2  14    0.33    0.46
   5   2  15    0.15    0.43
   0   1   9    8.23    0.39
   0   1  15    0.10    0.33
   0   1  16   -0.07    0.31
   1   1  21   -0.22    0.37
  -1   0  21    1.43    0.39
   0  -1  -4  235.39    1.27
   1  -1  -6   35.70    0.55
  -3  -2  20    0.05    0.40
   6  -2 -10    1.74    0.41
  -2  -3  -3    4.82    0.51
   1  -3 -10    0.67    0.35
   3  -3 -12   13.30    0.39
   4  -3 -12    0.96    0.39
   5  -3 -12    0.01    0.41
   1  -4 -11    7.09    0.38
   2  -4 -12    2.75    0.40
   4  -4 -13    0.02    0.38
  -2  -5  -5    1.68    0.42
  -1  -5  -8    0.15    0.38
   0  -5 -10    0.16    0.34
  -3  -6  -1    0.04    0.51
  -2  -6  -5   -0.28    0.46
  -1  -6  -8    0.38    0.39
   0  -6 -10    0.44    0.39
   3   2  10    7.39    0.47
   3   2  14    9.43    0.40
   3   2  15    0.39    0.34
   3   2  16    0.65    0.44
   4   2   8    1.13    0.42
   4   2  17    0.72    0.42
   0   1   8   14.39    0.42
   0   1  17   -0.34    0.30
   0   1  18    2.88    0.35
   1   1  22    0.16    0.38
  -1   0   4   21.15    0.63
  -1   0  22    1.15    0.37
   2   0  -4   35.02    0.58
   7   0  -3    3.63    0.57
   3  -1  -8    1.30    0.35
  -1  -2  -4   40.06    0.66
   3  -2 -10    3.83    0.43
  -4  -3  12    0.18    0.49
  -4  -3  13    0.34    0.47
  -4  -3  14    0.10    0.42
  -4  -3  15    0.01    0.46
  -1  -3  -6    0.15    0.34
   2  -3 -11    1.88    0.31
  -1  -4  -7   24.40    0.50
  -3  -5  -1    0.63    0.46
   1  -5 -11   -0.03    0.43
   3   2   9    3.53    0.38
   3   2  17    0.77    0.37
   3   2  18    0.79    0.41
   5   2   8    0.82    0.45
   6   2  11    0.33    0.49
   0   1   7    9.11    0.45
   0   1  19    2.34    0.35
   1   1   3  169.44    1.38
  -1  -1  -1   20.28    0.93
   2  -1  -7    7.57    0.40
   4  -1  -8    0.56    0.43
   5  -1  -8    0.49    0.32
   1  -2  -8   23.01    0.44
   2  -2  -9    4.16    0.41
   4  -2 -10   10.31    0.43
   5  -2 -10    0.47    0.35
  -4  -3  11    3.39    0.49
  -4  -3  16    0.03    0.47
   0  -3  -8    5.39    0.35
  -3  -4   0    0.58    0.51
  -2  -4  -4    2.59    0.44
   0  -4  -9    3.25    0.37
   3  -4 -12    5.36    0.41
   2  -5 -12    2.08    0.38
   2   2  12    5.55    0.46
   2   2  13    3.49    0.37
   2   2  14    4.70    0.36
   2   2  15    1.15    0.34
   2   2  16    0.39    0.41
   3   2   8    3.17    0.44
   3   2  19    0.38    0.37
   4   2   7    0.43    0.44
   5   2   7    0.27    0.48
   6   2  10   -0.37    0.52
   0   1  20    6.51    0.40
   0   1  21    0.50    0.39
  -2   0  12    1.98    0.38
  -2   0  13   -0.72    0.33
  -2   0  14    4.84    0.38
  -2   0  15   12.99    0.42
  -2   0  16    0.02    0.38
   6   0  -4    1.73    0.46
  -3  -1  14    4.16    0.41
  -2  -1   3    0.96    0.60
   6  -1  -7    1.67    0.41
   7  -1  -6    1.01    0.47
   0  -2  -6   36.75    0.59
  -4  -3  10    1.32    0.48
   3  -3 -11    8.90    0.37
   5  -3 -11   -0.01    0.40
   1  -4 -10    0.63    0.37
   2  -4 -11    3.56    0.41
   4  -4 -12    0.84    0.38
  -1  -5  -7    8.12    0.43
   0  -5  -9    2.90    0.37
   3  -5 -12    2.06    0.41
  -2  -6  -4    0.91    0.43
  -1  -6  -7    0.21    0.37
   0  -6  -9    0.40    0.37
   2   2  10   11.42    0.47
   2   2  11    6.40    0.39
   2   2  17    0.15    0.35
   2   2  18    1.09    0.42
   6   2   9    0.01    0.53
   0   1  22    0.56    0.40
  -2   0  11    0.10    0.33
  -2   0  17   17.24    0.43
  -2   0  18    9.71    0.40
  -3  -1  11    0.98    0.42
  -3  -1  12    2.35    0.36
  -3  -1  13    2.98    0.35
  -3  -1  15    5.03    0.35
  -3  -1  16    5.52    0.37
  -3  -1  17    1.04    0.41
   6  -2  -9    0.32    0.36
  -4  -3   9    5.39    0.58
   1  -3  -9   -0.49    0.37
   2  -3 -10    3.26    0.34
   4  -3 -11    4.38    0.36
  -2  -5  -4    1.03    0.43
   1  -5 -10    0.21    0.41
   2  -5 -11    6.93    0.44
  -3  -6   0    0.14    0.51
   2   2   9   17.45    0.54
   2   2  19    0.16    0.34
   3   2   7    1.35    0.43
   4   2   6    1.05    0.50
   0   1   6   10.65    0.44
  -2   0  10    0.19    0.37
  -2   0  19    0.86    0.34
  -2   0  20    0.79    0.40
  -3  -1  10    0.31    0.42
  -3  -1  18    0.53    0.34
  -3  -1  19    0.31    0.41
   3  -1  -7    8.87    0.46
   3  -2  -9   26.11    0.43
   6  -3 -10    0.75    0.37
  -1  -4  -6    2.59    0.44
   0  -4  -8    5.78    0.46
   3  -4 -11    2.19    0.39
  -3  -5   0    0.47    0.47
   2   2  20    0.33    0.35
   5   2   6    0.27    0.54
   6   2   8    1.86    0.59
  -1   1  12    1.84    0.39
  -1   1  13   13.00    0.42
  -1   1  14    3.98    0.36
  -1   1  15    2.06    0.34
  -1   1  16    4.51    0.33
  -1   1  17    0.08    0.33
  -1   1  18    1.51    0.39
  -2   0   9   23.43    0.48
  -2   0  21    0.67    0.35
  -3  -1  20   -0.22    0.37
   1  -1  -5   23.03    0.50
   5  -1  -7    8.77    0.38
   1  -2  -7   14.37    0.47
   4  -2  -9    5.37    0.37
   5  -2  -9    1.32    0.35
  -3  -3   2    0.04    0.78
  -1  -3  -5   10.92    0.42
   0  -3  -7    2.40    0.37
   3  -3 -10    7.27    0.36
   5  -3 -10    0.57    0.41
   4  -4 -11   -0.23    0.37
   0  -5  -8    1.51    0.43
   3  -5 -11    1.04    0.38
  -1  -6  -6    0.81    0.37
   0  -6  -8    1.02    0.38
   1   2  12    0.39    0.37
   1   2  13    0.68    0.38
   1   2  14   -0.29    0.36
   1   2  15    2.06    0.34
   1   2  16    0.34    0.37
   1   2  17    2.34    0.36
   1   2  18    0.72    0.34
   2   2   8   12.76    0.44
   3   2   6    2.43    0.46
  -1   1  11    0.47    0.34
  -1   1  19    6.43    0.39
  -1   1  20    4.19    0.41
  -2   0   8    5.48    0.45
  -2   0  22    0.81    0.35
  -1   0   3   26.79    0.79
   7   0  -2    0.32    0.48
  -3  -1   9    4.41    0.46
   2  -1  -6   43.67    0.56
   4  -1  -7    1.22    0.36
   6  -1  -6    0.51    0.42
   2  -2  -8    1.54    0.35
   6  -2  -8    1.11    0.42
  -2  -3  -2    4.88    0.47
   4  -3 -10    2.38    0.38
  -2  -4  -3    0.42    0.44
   1  -4  -9    2.44    0.33
   2  -4 -10    6.56    0.35
  -1  -5  -6    0.17    0.32
   2  -5 -10    3.01    0.40
  -2  -6  -3    0.83    0.42
   1  -6  -9    0.92    0.37
   1   2  11    0.26    0.32
   1   2  19    1.21    0.36
   1   2  20    0.37    0.35
  -1   1  10    4.37    0.37
  -1   1  21    0.79    0.38
   0   1   5   31.45    0.58
   5   1   0   19.90    0.92
   6   1   1    1.55    0.73
  -4  -2  14    0.33    0.43
  -4  -2  15    2.04    0.44
  -4  -2  16    0.12    0.47
  -4  -2  17    0.72    0.45
  -4  -2  18    0.19    0.41
  -3  -2   4    3.31    0.76
  -2  -2   0   57.08    1.08
  -1  -2  -3   18.40    0.55
  -4  -3   8   23.09    0.79
   1  -3  -8   -0.13    0.35
   2  -3  -9    0.10    0.38
   6  -3  -9    0.18    0.37
  -2  -5  -3    3.27    0.46
   1  -5  -9    1.41    0.36
  -3  -6   1   -0.01    0.52
   1   2  10    0.57    0.34
   1   2  21    0.15    0.38
   2   2   7   60.88    0.65
   4   2   5    4.42    0.58
   6   2   7    0.39    0.62
  -1   1   9    9.37    0.47
  -1   1  22   -0.25    0.37
   6   0  -3    3.53    0.43
  -3  -1   8    0.74    0.44
   0  -1  -3  112.31    1.01
  -4  -2  13    0.22    0.43
   0  -2  -5   85.88    0.72
   3  -2  -8    3.39    0.35
   5  -2  -8    1.01    0.33
  -3  -4   1    1.77    0.58
  -1  -4  -5   26.21    0.53
   0  -4  -7   11.91    0.42
   3  -4 -10    9.77    0.38
   4  -4 -10    0.95    0.37
   5  -4 -10    0.49    0.37
   3  -5 -10    0.14    0.38
  -1  -6  -5    4.98    0.38
   0  -6  -7    0.42    0.38
   1   2   9    3.18    0.47
  -2   0   7    3.42    0.38
   5  -1  -6    4.11    0.42
  -4  -2  12    0.29    0.44
   4  -2  -8    7.56    0.40
   6  -2  -7    1.59    0.44
   7  -2  -6   -0.02    0.47
   0  -3  -6    2.97    0.47
   3  -3  -9   40.87    0.45
   4  -3  -9    7.32    0.44
   5  -3  -9    0.66    0.35
   1  -4  -8    0.39    0.40
   2  -4  -9    1.25    0.34
  -3  -5   1    4.89    0.54
  -1  -5  -5   13.83    0.46
   0  -5  -7    0.06    0.34
   2  -5  -9    3.22    0.40
  -2  -6  -2   -0.25    0.45
   1  -6  -8   -0.03    0.37
   0   2  14    1.56    0.38
   0   2  15    0.13    0.30
   0   2  16    0.59    0.32
   0   2  17    2.95    0.36
   0   2  18    1.38    0.36
   0   2  19    1.97    0.41
   3   2   5    0.43    0.49
  -1   1   8   22.36    0.47
   1   1   2 1000.00    3.47
   7   1   3    4.16    0.85
   3  -1  -6   13.13    0.42
   4  -1  -6    0.87    0.45
   6  -1  -5    4.21    0.44
  -4  -2  11    3.58    0.46
   2  -2  -7    0.25    0.35
  -1  -3  -4    2.84    0.38
   6  -3  -8   -0.03    0.37
   5  -4  -9    0.42    0.42
   1  -5  -8    0.32    0.35
   0   2  13    0.70    0.34
   0   2  20    1.12    0.38
   0   2  21    1.03    0.38
   1   2   8   28.42    0.54
   2   2   6   49.57    0.68
   5   2   5    0.14    0.61
  -3   0  15    0.83    0.39
  -3   0  16    0.99    0.36
  -3   0  17    0.38    0.36
  -3   0  18   -0.08    0.34
  -3   0  19    0.17    0.39
   7   0  -1    0.11    0.50
  -3  -1   7    8.06    0.49
   1  -2  -6   20.35    0.45
   1  -3  -7    5.60    0.36
   2  -3  -8    2.05    0.37
  -2  -4  -2    3.85    0.48
   3  -4  -9    7.28    0.37
   4  -4  -9    3.99    0.36
  -2  -5  -2    0.60    0.43
   3  -5  -9    0.25    0.36
   4  -5  -9    0.91    0.43
  -3  -6   2    0.47    0.55
  -1  -6  -4    1.61    0.41
   0  -6  -6   -0.34    0.37
   2  -6  -8    0.59    0.38
   0   2  12    2.34    0.37
  -2   1  14    6.29    0.44
  -2   1  15   29.92    0.46
  -2   1  16    5.94    0.39
  -2   1  17    2.76    0.36
  -2   1  18    0.68    0.36
  -2   1  19    1.38    0.36
  -2   1  20   -0.19    0.36
  -2   1  21    0.09    0.40
   0   1   4  219.42    1.25
   3   1   0   12.49    1.09
  -3   0  13    5.31    0.44
  -3   0  14    2.39    0.35
  -3   0  20   -0.05    0.37
  -3   0  21   -0.18    0.38
  -2   0   6  120.90    0.89
   5   0  -3    0.97    0.47
   2  -1  -5    9.15    0.43
  -4  -2  10    8.92    0.50
   5  -2  -7    0.06    0.35
  -4  -3   7   19.61    0.94
   3  -3  -8   22.38    0.45
   5  -3  -8    1.82    0.37
   0  -4  -6    0.86    0.38
   0  -5  -6    0.70    0.35
   1  -6  -7   -0.28    0.35
   3   3  16    0.61    0.44
   3   3  17   -0.01    0.41
   3   3  18   -0.54    0.42
   4   3  15    0.21    0.43
   4   3  16   -0.12    0.46
   0   2  11    1.18    0.34
  -2   1  13   37.99    0.50
  -1   1   7    0.17    0.37
  -3   0  12    0.63    0.44
   6   0  -2    0.08    0.46
  -4  -1  17    0.66    0.42
  -4  -1  18    0.22    0.42
  -4  -1  19    1.89    0.46
   1  -1  -4   13.95    0.52
   3  -2  -7    7.50    0.36
   4  -2  -7   10.10    0.41
   6  -2  -6    1.18    0.45
   7  -2  -5    0.85    0.39
  -2  -3  -1    3.62    0.52
   4  -3  -8   32.25    0.47
   6  -3  -7    0.35    0.39
  -1  -4  -4    3.46    0.44
   1  -4  -7    8.72    0.38
   2  -4  -8    2.64    0.32
   5  -4  -8    0.54    0.41
  -1  -5  -4    2.80    0.40
   1  -5  -7    1.43    0.35
   2  -5  -8    2.26    0.36
  -2  -6  -1    0.33    0.45
   2   3  18    0.00    0.42
   3   3  14    0.64    0.43
   3   3  15   -0.38    0.37
   4   3  14    0.17    0.45
   0   2  10    2.55    0.36
   1   2   7   27.26    0.51
   6   2   6    1.00    0.77
  -2   1  12    4.65    0.34
  -4  -1  15    0.56    0.44
  -4  -1  16    0.85    0.36
   5  -1  -5    3.26    0.36
   0  -2  -4    3.17    0.46
   0  -3  -5    1.33    0.44
   3  -4  -8    8.17    0.38
   4  -4  -8    0.42    0.34
   3  -5  -8    0.21    0.35
   4  -5  -8   -0.14    0.38
  -1  -6  -3    2.90    0.44
   0  -6  -5    0.32    0.37
   1  -6  -6    0.13    0.41
   2  -6  -7    1.31    0.38
   2   3  15    0.21    0.36
   2   3  16    0.07    0.33
   2   3  17   -0.13    0.36
   2   3  19    0.59    0.39
   3   3  13    2.74    0.40
   4   3  13    1.22    0.37
  -1   2  15    0.82    0.35
  -1   2  16    0.74    0.32
  -1   2  17    0.81    0.34
  -1   2  18    0.40    0.35
  -1   2  19    0.21    0.35
  -1   2  20    0.57    0.36
  -1   2  21    0.34    0.38
   2   2   5   70.60    0.81
   4   2   4    2.88    0.61
  -2   1  11   19.77    0.43
   4   1   0    6.24    0.79
  -3   0  11   -0.37    0.37
  -4  -1  14    0.77    0.37
   3  -1  -5    8.08    0.48
   4  -1  -5    0.63    0.44
   6  -1  -4    1.58    0.42
  -4  -2   9    3.87    0.56
   2  -2  -6    1.71    0.36
   1  -3  -6    7.72    0.45
   2  -3  -7   -0.28    0.37
   5  -3  -7    1.99    0.43
  -3  -5   2    0.04    0.49
  -3  -6   3    0.32    0.53
   2   3  13    4.79    0.43
   2   3  14    0.65    0.35
   3   3  12    7.65    0.40
   4   3  12    0.39    0.40
   5   3  13    0.14    0.48
  -1   2  14    0.95    0.33
   0   2   9    4.01    0.38
   3   2   4    1.76    0.53
  -1   1   6   33.44    0.55
  -3   0  10   -0.02    0.43
  -4  -1  13    1.29    0.35
  -3  -1   6   10.57    0.54
  -1  -2  -2   14.09    0.55
   1  -2  -5   15.16    0.43
   5  -2  -6    6.66    0.38
   7  -2  -4    0.75    0.42
  -1  -3  -3    5.00    0.40
   3  -3  -7   12.31    0.39
   4  -3  -7   23.72    0.47
   6  -3  -6    0.71    0.42
  -3  -4   2    0.51    0.57
   0  -4  -5   17.20    0.46
   2  -4  -7   -0.30    0.32
   5  -4  -7    1.13    0.40
  -2  -5  -1    0.09    0.45
   0  -5  -5    9.45    0.39
   1  -5  -6    2.82    0.41
   2  -5  -7    0.31    0.35
   1   3  16   -0.17    0.35
   1   3  17    0.61    0.36
   1   3  18    0.87    0.36
   1   3  19    0.62    0.36
   1   3  20    0.57    0.38
   2   3  12    3.53    0.42
   3   3  11   17.43    0.52
   4   3  11    0.89    0.44
   5   3  12    0.53    0.48
  -1   2  13    4.15    0.39
   1   2   6   59.62    0.71
  -2   1  10   11.61    0.40
  -2   0   5   11.80    0.52
   7   0   0    0.55    0.49
  -4  -1  12    2.26    0.42
   3  -2  -6    0.48    0.35
   4  -2  -6   26.81    0.52
   6  -2  -5    4.65    0.41
  -2  -4  -1    5.21    0.49
   1  -4  -6    4.14    0.37
   3  -4  -7    2.56    0.38
   4  -4  -7    8.95    0.44
  -1  -5  -3   19.28    0.43
   3  -5  -7   -0.10    0.38
   4  -5  -7    0.83    0.37
  -2  -6   0    0.43    0.43
   0  -6  -4    1.04    0.37
   1  -6  -5    0.26    0.41
   2  -6  -6    1.81    0.39
   1   3  14    0.41    0.40
   1   3  15    0.35    0.36
  -1   2  12   13.50    0.43
   0   2   8   23.95    0.46
  -3   1  20    0.31    0.41
  -1   0   2  139.22    1.41
  -1  -4  -3    3.60    0.39
  -4  -5   7    0.10    0.71
  -1  -6  -2    2.44    0.38
   1   3  13    0.06    0.33
   2   3  11    2.47    0.35
   3   3  10    0.30    0.40
   4   3  10   -0.21    0.44
   5   3  11    0.12    0.49
  -1   2  11    2.83    0.38
  -3   1  16    4.29    0.44
  -3   1  17    0.89    0.36
  -3   1  18   -0.15    0.36
  -3   1  19   -0.56    0.37
  -2   1   9    3.75    0.37
   0   1   3  108.22    1.02
  -3   0   9   -0.09    0.37
   5   0  -2    0.98    0.51
   6   0  -1    1.72    0.48
  -4  -1  11    4.95    0.41
   0  -1  -2  136.27    1.16
   2  -1  -4    3.13    0.39
   5  -1  -4   10.03    0.40
   6  -1  -3    0.63    0.43
  -4  -2   8    5.73    0.60
  -5  -3  14    0.40    0.56
   2  -3  -6    6.61    0.41
   5  -3  -6   -0.83    0.36
   6  -3  -5    0.27    0.42
   5  -4  -6    3.02    0.43
   0  -5  -4    2.60    0.42
   2  -5  -6    0.55    0.35
   0   3  17    0.26    0.35
   0   3  18    2.12    0.37
   0   3  19   -0.61    0.37
   0   3  20    0.06    0.39
   1   3  12    2.56    0.44
   2   3  10   19.39    0.52
  -2   2  17    0.24    0.38
  -2   2  18    1.20    0.35
  -2   2  19    1.23    0.38
  -2   2  20    0.20    0.37
  -2   2  21    0.45    0.37
  -3   1  15    4.18    0.37
  -4   0  17   -0.07    0.42
  -4   0  18    0.41    0.37
  -4   0  19   -0.49    0.37
   2  -2  -5    0.85    0.41
   5  -2  -5    1.08    0.34
   6  -2  -4    2.25    0.44
   7  -2  -3    0.00    0.37
   0  -3  -4    1.64    0.36
   1  -3  -5    2.40    0.37
   3  -3  -6   11.65    0.40
   4  -3  -6   20.87    0.42
   2  -4  -6    0.53    0.32
  -2  -5   0    1.57    0.42
   1  -5  -5    0.28    0.37
   3  -5  -6    1.84    0.38
   4  -5  -6    1.10    0.37
  -3  -6   4    0.84    0.53
  -2  -6   1    0.44    0.43
   0  -6  -3    4.42    0.39
   1  -6  -4    0.53    0.40
   2  -6  -5    0.53    0.38
   0   3  15   10.56    0.43
   0   3  16    0.67    0.36
   3   3   9   25.75    0.54
   4   3   9    0.19    0.45
   5   3  10    0.07    0.48
  -2   2  16    1.87    0.35
  -1   2  10   35.07    0.49
   0   2   7   36.78    0.53
   1   2   5   45.00    0.69
   2   2   4   71.57    0.89
  -3   1  14    5.02    0.36
  -2   1   8   38.18    0.50
  -1   1   5   16.32    0.52
   6   1   2    1.38    0.66
  -4   0  15    1.01    0.44
  -4   0  16    0.02    0.37
  -4  -1  10    0.49    0.43
  -2  -1   2   17.29    1.09
   1  -1  -3    5.47    0.49
   3  -1  -4   17.91    0.52
   4  -1  -4    1.53    0.45
  -5  -2  16    0.73    0.48
  -5  -3  13    0.42    0.59
   0  -4  -4    1.39    0.37
   1  -4  -5    1.71    0.38
   3  -4  -6    1.10    0.31
   4  -4  -6    3.16    0.37
  -3  -5   3    1.04    0.50
  -1  -5  -2    3.47    0.41
  -1  -6  -1    0.43    0.44
   0   3  14    3.61    0.37
   1   3  11    0.74    0.38
  -2   2  14    2.15    0.39
  -2   2  15    0.97    0.33
  -3   1  13    2.30    0.41
  -4   0  14    6.08    0.41
  -3   0   8    3.71    0.39
   7   0   1   -0.60    0.49
  -5  -2  15    0.43    0.48
   0  -2  -3    9.22    0.44
   1  -2  -4    0.64    0.38
   3  -2  -5    0.09    0.35
   4  -2  -5   -0.28    0.37
  -2  -3   0    1.29    0.46
  -1  -3  -2    1.00    0.47
   5  -3  -5    2.13    0.37
   5  -4  -5    4.04    0.43
   2  -5  -5    1.61    0.37
   2  -6  -4    3.05    0.45
  -1   3  20    0.31    0.41
   0   3  13   10.21    0.37
   1   3  10    7.61    0.46
   2   3   9   74.46    0.68
  -2   2  13    5.50    0.39
  -1   2   9    0.52    0.34
  -3   1  12    2.56    0.39
   5   1   1    3.88    0.76
  -3  -1   5    6.02    0.55
  -5  -2  14    0.16    0.48
   7  -2  -2   -0.21    0.43
   2  -3  -5    6.62    0.39
   6  -3  -4   -0.08    0.38
  -2  -4   0    1.62    0.48
  -1  -4  -2    2.67    0.39
   2  -4  -5    0.47    0.39
   0  -5  -3   19.37    0.44
   1  -5  -4    0.23    0.41
   3  -5  -5    0.69    0.35
   4  -5  -5    0.55    0.37
   0  -6  -2    1.79    0.44
   1  -6  -3    1.63    0.41
   3  -6  -4    0.92    0.38
  -1   3  17    0.24    0.37
  -1   3  18    0.19    0.36
  -1   3  19    0.13    0.38
   0   3  12    3.90    0.39
   3   3   8    6.43    0.46
   0   2   6   30.22    0.55
  -2   1   7    7.15    0.47
   7   1   4    0.51    0.63
  -4   0  13    1.14    0.35
  -2   0   4   37.81    0.66
  -4  -1   9    0.14    0.50
   5  -1  -3    3.32    0.39
   6  -1  -2    7.01    0.49
   5  -2  -4   11.82    0.39
   6  -2  -3    1.02    0.47
  -5  -3  12    0.21    0.59
   3  -3  -5    1.44    0.44
   4  -3  -5    3.84    0.37
   3  -4  -5    2.18    0.37
   4  -4  -5    6.95    0.39
  -2  -6   2   -0.47    0.45
  -1   3  16    0.23    0.35
   2   3   8    9.41    0.51
   4   3   8    1.89    0.44
   5   3   9   -0.17    0.49
  -2   2  12    1.98    0.36
  -1   2   8   20.74    0.45
  -3   1  11    1.32    0.38
  -4   0  12    3.80    0.43
  -3   0   7   13.79    0.51
  -5  -1  17    0.26    0.44
  -5  -2  13    1.58    0.52
  -4  -2   7   10.44    0.76
  -3  -3   3    0.56    0.69
   0  -3  -3    0.19    0.45
   1  -3  -4   18.22    0.44
  -3  -4   3    0.08    0.53
   0  -4  -3    5.05    0.38
   1  -4  -4    3.63    0.38
  -2  -5   1    0.62    0.45
  -1  -5  -1    9.68    0.46
   2  -5  -4   -0.65    0.42
  -1  -6   0    0.31    0.37
   2  -6  -3    2.00    0.44
   2   4  17    0.04    0.37
  -1   3  14    1.10    0.38
  -1   3  15    2.19    0.35
   0   3  11   -0.02    0.37
   1   3   9   -0.14    0.36
  -3   2  18    0.88    0.38
  -3   2  19    0.01    0.38
  -3   2  20    0.71    0.38
  -2   2  11   23.47    0.47
   3   2   3   11.96    0.69
  -4   1  18    0.60    0.41
  -4   1  19    0.71    0.39
  -1   1   4   13.81    0.53
   5   0  -1   -0.07    0.51
   6   0   0   12.92    0.58
  -5  -1  16    0.37    0.44
  -1  -2  -1    0.27    0.44
   2  -2  -4    5.60    0.40
   4  -2  -4   63.07    0.63
   7  -2  -1    0.62    0.44
   5  -3  -4    1.65    0.36
   6  -3  -3   -0.04    0.37
   5  -4  -4    7.53    0.38
   6  -4  -3    0.94    0.39
   3  -5  -4    1.30    0.37
   4  -5  -4    0.05    0.37
   0  -6  -1   11.12    0.48
   1  -6  -2   -0.01    0.40
   3  -6  -3    0.28    0.39
   1   4  18   -0.14    0.39
   2   4  15    1.12    0.42
   2   4  16   -0.20    0.38
   3   4  15    0.73    0.42
   3   3   7    6.72    0.53
  -3   2  16    0.41    0.39
  -3   2  17    0.43    0.37
   1   2   4   39.47    0.61
  -4   1  17    1.55    0.38
  -3   1  10    0.51    0.36
   1   1   1   18.02    0.94
  -4   0  11    6.65    0.46
  -5  -1  15    0.35    0.46
  -1  -1   0   38.42    1.26
   2  -1  -3    0.90    0.39
   4  -1  -3    2.85    0.39
  -2  -2   1   24.73    0.86
   3  -2  -4    3.04    0.39
   2  -4  -4    0.00    0.33
   4  -4  -4    6.92    0.40
  -3  -5   4    1.40    0.50
   0  -5  -2    5.59    0.37
   1  -5  -3    0.32    0.36
   1   4  16    0.77    0.35
   1   4  17    1.53    0.39
   2   4  14   -0.08    0.45
   3   4  14   -0.20    0.39
  -2   3  18   -0.31    0.39
  -2   3  19    0.23    0.39
  -1   3  13    0.74    0.32
   0   3  10    1.22    0.35
   1   3   8   15.47    0.49
  -3   2  15    0.47    0.38
  -2   2  10    0.64    0.37
  -1   2   7   12.15    0.45
  -4   1  16    0.82    0.35
  -2   1   6   44.64    0.64
   7   0   2    0.20    0.50
  -5  -1  14    0.60    0.42
   3  -1  -3   16.38    0.53
  -5  -2  12    0.43    0.48
   5  -2  -3    1.61    0.42
   6  -2  -2    0.01    0.47
  -5  -3  11    0.17    0.70
   2  -3  -4    8.59    0.39
   4  -3  -4    1.29    0.36
  -1  -4  -1   10.63    0.51
   3  -4  -4    1.16    0.33
  -4  -5   8   -0.06    0.66
   4  -5  -3    0.96    0.40
  -2  -6   3    1.74    0.47
  -1  -6   1    5.48    0.46
   2  -6  -2   -0.04    0.38
   0   4  18    0.91    0.41
   1   4  15    0.04    0.34
   3   4  13    5.02    0.50
  -2   3  17    0.16    0.37
  -1   3  12   -0.47    0.34
   2   3   7   34.66    0.56
   4   3   7    3.05    0.52
   5   3   8    0.06    0.49
  -3   2  14    3.88    0.38
   0   2   5   76.50    0.74
   2   2   3    4.01    0.49
  -4   1  15    0.14    0.38
  -3   1   9    3.47    0.45
   0   1   2  129.23    1.14
  -4  -1   8   -0.11    0.46
   5  -1  -2   39.84    0.60
   6  -1  -1    2.30    0.45
   1  -2  -3   26.62    0.52
   3  -3  -4    2.23    0.40
   5  -3  -3    0.03    0.42
   6  -3  -2   -0.32    0.42
  -2  -4   1   18.45    0.57
   1  -4  -3    0.74    0.34
   5  -4  -3    0.63    0.37
   6  -4  -2    0.40    0.39
  -1  -5   0    1.52    0.40
   2  -5  -3   -0.03    0.36
   3  -5  -3    0.87    0.36
   5  -5  -2    6.98    0.45
   1  -6  -1    6.42    0.43
   3  -6  -2    0.57    0.39
   0   4  17   -0.51    0.38
   1   4  14    0.29    0.37
   2   4  13    1.68    0.40
   4   4  13    1.16    0.49
  -2   3  16    1.05    0.35
   0   3   9    0.24    0.34
  -2   2   9    4.79    0.42
   4   2   3    3.47    1.01
  -4   1  14    1.98    0.36
  -5   0  17    0.02    0.46
  -4   0  10    0.07    0.37
  -3   0   6   13.75    0.54
  -5  -1  13    0.55    0.45
   0  -2  -2   20.38    0.52
   7  -2   0    1.36    0.44
  -1  -3  -1   12.21    0.47
   1  -3  -3  128.05    0.83
  -4  -4   7    6.03    0.91
   0  -4  -2    0.12    0.37
  -2  -5   2    0.67    0.46
   1  -5  -2    0.77    0.41
   0  -6   0   19.52    0.47
   0   4  16   -0.05    0.38
   1   4  13   -0.12    0.43
   2   4  12    1.90    0.44
   3   4  12    1.39    0.44
  -2   3  15    0.43    0.34
  -1   3  11    1.82    0.35
   1   3   7    6.34    0.49
  -3   2  13   16.32    0.41
  -4   1  13    1.28    0.36
  -5   0  16    0.24    0.43
   7  -1   1    0.23    0.45
  -5  -2  11   -0.20    0.50
   4  -2  -3    4.24    0.39
  -2  -3   1   11.50    0.58
   0  -3  -2    8.29    0.50
   2  -4  -3    2.18    0.37
   4  -4  -3    3.47    0.37
   6  -4  -1    0.64    0.44
   0  -5  -1    5.08    0.37
   4  -5  -2    0.49    0.38
  -1  -6   2    0.37    0.43
   2  -6  -1   -0.03    0.37
   3  -6  -1    0.09    0.40
   0   4  15   -0.22    0.38
   4   4  12    0.02    0.45
  -2   3  14    0.48    0.35
  -1   3  10   -0.54    0.43
   0   3   8    5.38    0.43
   3   3   6    2.11    0.48
  -3   2  12   -0.06    0.35
  -1   2   6   19.21    0.47
  -3   1   8   -0.12    0.45
  -5   0  15   -0.88    0.46
   6   0   1   39.47    0.69
   1  -1  -2   19.05    0.62
   2  -2  -3    7.41    0.41
   3  -2  -3    5.43    0.47
   5  -2  -2    5.42    0.43
   6  -2  -1   -0.08    0.44
   4  -3  -3    1.63    0.36
   6  -3  -1    0.12    0.43
   3  -4  -3    0.52    0.32
   5  -4  -2    3.23    0.39
  -3  -5   5    0.77    0.51
   2  -5  -2    0.81    0.35
   3  -5  -2    0.86    0.36
   5  -5  -1    0.89    0.40
  -2  -6   4    1.77    0.47
   1  -6   0    0.51    0.41
  -1   4  17   -0.37    0.38
  -1   4  18   -0.21    0.38
   0   4  14    0.19    0.36
   1   4  12    0.26    0.36
   2   4  11    1.44    0.41
   3   4  11   10.34    0.49
  -2   3  13    0.64    0.34
   2   3   6    7.79    0.43
  -4   2  18   -0.21    0.39
  -2   2   8    1.57    0.37
  -4   1  12    2.52    0.37
  -2   1   5    8.95    0.45
  -4   0   9    0.11    0.46
  -5  -1  12    2.20    0.45
   4  -1  -2    1.37    0.46
   7  -2   1    0.05    0.44
   2  -3  -3    2.03    0.37
   3  -3  -3    1.07    0.38
   5  -3  -2    0.51    0.36
  -3  -4   4    1.33    0.59
   0  -6   1   13.24    0.43
  -1   4  16   -0.22    0.37
   0   4  13    0.03    0.36
   4   4  11    0.87    0.48
  -3   3  17   -0.05    0.40
  -3   3  18    0.94    0.40
  -2   3  12    0.75    0.32
   6   3   9    0.03    0.75
  -4   2  16    0.52    0.41
  -4   2  17    0.59    0.37
  -3   2  11   41.27    0.54
   0   2   4    2.68    0.40
   1   2   3   18.85    0.55
  -1   1   3    5.73    0.52
   6   1   3    3.21    0.60
   7   1   5    2.80    0.67
  -5   0  14    1.68    0.39
  -2   0   3   36.06    0.65
   7   0   3    2.63    0.56
  -4  -1   7    1.39    0.53
  -3  -1   4   13.41    0.68
   6  -1   0    0.46    0.43
  -1  -4   0    3.60    0.40
   1  -4  -2    0.81    0.35
   4  -4  -2    1.29    0.36
   6  -4   0    0.15    0.40
  -1  -5   1    1.72    0.34
   1  -5  -1    1.35    0.36
   4  -5  -1    2.29    0.38
   2  -6   0    0.88    0.38
   3  -6   0   -0.13    0.40
  -1   4  15   -0.06    0.36
   0   4  12    0.55    0.42
   1   4  11    0.06    0.35
   2   4  10    5.91    0.46
   3   4  10    0.38    0.47
  -3   3  16   -0.15    0.38
  -1   3   9    0.52    0.40
   0   3   7    2.55    0.45
   1   3   6    0.18    0.43
   4   3   6    3.35    0.59
  -4   2  15    3.17    0.43
  -5   1  17    1.51    0.44
  -4   1  11    5.07    0.38
   0  -1  -1    1.51    0.47
   5  -1  -1   15.36    0.44
   7  -1   2    1.37    0.47
  -2  -4   2    1.24    0.54
   0  -4  -1    1.89    0.38
   2  -4  -2    0.70    0.37
   3  -4  -2   -0.05    0.32
   5  -4  -1    1.73    0.39
  -2  -5   3    0.08    0.44
   0  -5   0    0.16    0.35
   2  -5  -1    0.17    0.36
   3  -5  -1    3.60    0.37
   5  -5   0    1.98    0.40
  -2  -6   5    0.97    0.48
  -1  -6   3    1.31    0.44
   1  -6   1   -0.43    0.41
  -1   4  14    0.17    0.37
  -3   3  15    1.45    0.36
  -2   3  11    2.02    0.33
   5   3   7    0.86    0.60
  -3   2  10    3.12    0.39
  -2   2   7    0.05    0.37
  -1   2   5   12.73    0.44
  -5   1  16    0.03    0.42
  -3   1   7    7.79    0.42
  -5   0  13    0.82    0.37
  -3   0   5   27.61    0.62
  -5  -1  11    0.19    0.43
   2  -1  -2   19.45    0.49
   3  -1  -2   15.27    0.48
  -5  -2  10    0.20    0.55
   1  -2  -2    1.85    0.43
   4  -2  -2   10.66    0.42
   6  -2   0    1.11    0.38
   1  -3  -2   19.71    0.46
   4  -3  -2    1.16    0.38
   5  -3  -1   -0.36    0.41
   6  -3   0   -0.41    0.37
  -4  -5   9    0.10    0.65
   0  -6   2    2.35    0.39
   2  -6   1    0.23    0.41
   3  -6   1   -0.27    0.45
  -2   4  17    0.94    0.41
  -1   4  13    4.10    0.41
   0   4  11    2.23    0.37
   1   4  10    1.65    0.36
   4   4  10   -0.05    0.50
  -3   3  14    0.93    0.36
  -1   3   8   -0.30    0.38
  -4   2  14    0.15    0.37
  -4   1  10    0.77    0.47
  -4   0   8    0.33    0.40
   5  -2  -1    2.13    0.37
   7  -2   2    0.72    0.44
  -5  -3  10    0.69    0.96
  -1  -3   0    5.36    0.52
   3  -3  -2    0.23    0.39
   4  -4  -1    3.77    0.38
   6  -4   1   -0.50    0.39
   1  -5   0    1.22    0.42
   4  -5   0    0.02    0.37
   5  -5   1    1.94    0.39
  -2   4  16    2.68    0.39
   2   4   9    8.53    0.39
   3   4   9    5.73    0.49
  -2   3  10    2.18    0.37
   2   3   5    2.54    0.49
   3   3   5    0.74    0.52
  -4   2  13    0.50    0.38
  -3   2   9   28.55    0.52
  -5   1  15    0.37    0.36
   4   1   1    4.33    0.71
  -5   0  12   -0.03    0.37
   6  -1   1    1.06    0.44
  -4  -2   6   17.27    0.96
   2  -2  -2   18.75    0.53
   3  -2  -2    0.34    0.37
   0  -3  -1    2.96    0.39
   2  -3  -2   11.81    0.40
   1  -4  -1    1.08    0.36
   5  -4   0    0.84    0.38
  -3  -5   6    1.17    0.50
  -1  -5   2    0.21    0.34
   0  -5   1    5.74    0.43
   2  -5   0    1.53    0.40
   3  -5   0    1.01    0.36
  -1  -6   4    0.28    0.46
   1  -6   2    1.43    0.42
  -2   4  15    0.96    0.38
  -1   4  12    1.65    0.36
   0   4  10    0.98    0.35
   1   4   9    6.38    0.39
  -3   3  13    0.34    0.36
   0   3   6    2.61    0.40
  -5   1  14   -0.69    0.44
  -2   1   4    3.27    0.41
   5   1   2    2.20    0.65
   6   0   2   18.29    0.56
   7   0   4   -0.22    0.51
  -5  -1  10    0.25    0.46
   4  -1  -1   20.34    0.56
   7  -1   3    3.52    0.51
  -1  -2   0   89.33    0.93
   0  -2  -1   26.16    0.54
   4  -3  -1   -0.16    0.45
   6  -3   1   -0.15    0.38
  -1  -4   1    1.39    0.49
   0  -4   0    1.22    0.44
   2  -4  -1   17.70    0.43
   3  -4  -1    1.78    0.33
   6  -4   2   -0.40    0.45
  -2  -5   4   -0.40    0.45
   4  -5   1    0.02    0.42
  -2  -6   6    1.33    0.50
   0  -6   3    5.10    0.40
   2  -6   2   -0.14    0.38
   3  -6   2   -0.26    0.40
  -2   4  14    1.72    0.39
  -3   3  12   10.95    0.41
  -2   3   9    0.55    0.41
  -1   3   7    4.87    0.37
   1   3   5    9.85    0.44
  -4   2  12    1.25    0.36
  -2   2   6    1.68    0.38
  -4   1   9    0.52    0.38
  -3   1   6   10.77    0.43
  -5   0  11    8.03    0.49
  -1   0   1   77.87    1.24
   5  -1   0   21.25    0.54
   6  -2   1    0.37    0.38
   7  -2   3   -0.13    0.46
   5  -3   0    0.87    0.37
   4  -4   0    1.54    0.42
   0   5  15    1.15    0.42
   1   5  14    0.73    0.38
  -2   4  13    4.44    0.44
  -1   4  11    6.03    0.40
   0   4   9    3.19    0.45
   2   4   8    1.03    0.41
   4   4   9    0.62    0.49
  -4   3  16    0.34    0.38
  -3   2   8    3.22    0.37
  -1   2   4    0.24    0.46
   0   2   3    8.48    0.42
   2   2   2   28.18    0.76
  -5   1  13    1.50    0.39
  -4   0   7    1.56    0.49
   4  -2  -1    2.56    0.38
   5  -2   0    0.36    0.37
   1  -3  -1    3.83    0.44
   5  -4   1    1.63    0.39
   1  -5   1    9.64    0.41
   3  -5   1    0.42    0.36
  -1  -6   5    0.37    0.45
   1  -6   3    2.41    0.37
   3  -6   3    0.82    0.40
   1   5  13    0.75    0.46
   2   5  13    0.90    0.42
   1   4   8    1.18    0.37
   3   4   8    0.64    0.46
  -4   3  15   -0.71    0.39
  -3   3  11    8.56    0.38
  -5   2  16    0.55    0.39
  -4   2  11    3.62    0.38
   7   1   6   -0.19    0.56
  -4  -1   6    0.27    0.55
  -3  -3   4    2.28    0.66
  -2  -3   2   11.30    0.55
   2  -3  -1   12.01    0.47
   3  -3  -1    2.91    0.40
   6  -3   2   -0.06    0.40
  -3  -4   5    2.62    0.56
  -2  -4   3    2.47    0.49
   1  -4   0    4.04    0.36
   3  -4   0    0.17    0.33
  -1  -5   3    0.02    0.40
   0  -5   2    4.94    0.43
   2  -5   1   -0.47    0.37
   4  -5   2    0.54    0.37
  -2  -6   7   -0.22    0.52
   0  -6   4    1.17    0.39
   2  -6   3    0.74    0.38
   0   5  14    0.75    0.38
  -3   4  16    1.31    0.42
  -2   4  12    2.41    0.37
  -1   4  10    0.80    0.35
   5   4  10    0.31    0.59
  -4   3  14   -0.18    0.43
  -2   3   8    1.60    0.40
   0   3   5    0.81    0.38
  -5   2  15   -0.26    0.45
  -5   1  12    2.32    0.40
  -4   1   8    0.62    0.47
  -1   1   2   17.07    0.64
  -5   0  10    0.50    0.46
  -6  -1  14    1.08    0.52
   3  -1  -1   25.68    0.53
   6  -1   2    0.62    0.45
   7  -1   4    0.45    0.48
  -5  -2   9    0.58    0.61
   3  -2  -1    1.75    0.47
   6  -2   2    0.52    0.46
   7  -2   4    0.02    0.48
   4  -3   0    0.56    0.39
   5  -3   1    0.39    0.42
   2  -4   0    1.91    0.37
   4  -4   1    1.43    0.40
   5  -4   2    1.06    0.44
  -3  -5   7   -0.09    0.49
   3  -6   4    0.14    0.44
   0   5  13    1.13    0.36
   1   5  12    1.17    0.38
   2   5  12   -0.27    0.39
  -3   4  15   -0.01    0.39
   0   4   8    5.17    0.43
   2   4   7   17.88    0.48
  -3   3  10    7.37    0.37
  -1   3   6    6.09    0.40
   2   3   4    3.25    0.50
   4   3   5    1.68    0.60
  -4   2  10    9.46    0.39
  -3   2   7    5.17    0.45
  -2   2   5    0.44    0.38
   1   2   2   12.92    0.48
   0   1   1    1.39    0.48
   6   1   4    1.44    0.56
  -3   0   4   69.13    0.81
   7   0   5    0.25    0.51
  -5  -1   9    1.77    0.51
   1  -1  -1   31.99    0.72
   1  -2  -1   17.25    0.50
   0  -3   0   -0.13    0.39
  -4  -4   8    0.26    0.64
   0  -4   1    0.87    0.45
  -2  -5   5    0.96    0.46
   1  -5   2    3.22    0.38
   3  -5   2    3.22    0.38
  -1  -6   6    0.23    0.45
   1  -6   4    1.35    0.37
   2  -6   4    0.93    0.38
  -1   5  14    0.06    0.38
  -3   4  14    0.00    0.38
  -2   4  11    2.69    0.38
  -1   4   9    2.09    0.35
   1   4   7   22.72    0.48
   4   4   8    0.19    0.49
  -4   3  13    0.43    0.39
   1   3   4    3.42    0.46
  -5   2  14    0.05    0.38
   3   2   2    1.40    0.77
  -5   1  11    0.48    0.42
  -3   1   5    6.78    0.43
   6   0   3    7.32    0.50
   2  -1  -1   36.77    0.60
   5  -1   1    4.46    0.47
   2  -2  -1   24.26    0.49
   4  -2   0   -0.34    0.44
   5  -2   1    2.01    0.37
  -1  -3   1    3.74    0.50
   6  -3   3    0.12    0.37
  -1  -4   2    0.17    0.40
   2  -5   2    0.66    0.38
   4  -5   3    0.99    0.38
  -2  -6   8    0.68    0.47
   0  -6   5    0.06    0.39
  -1   5  13    1.64    0.41
   0   5  12    0.47    0.35
   1   5  11    0.96    0.38
   2   5  11    0.19    0.37
  -3   4  13    3.46    0.39
   3   4   7    0.82    0.48
  -4   3  12   -0.37    0.42
  -3   3   9   35.96    0.45
  -2   3   7   -0.06    0.39
   3   3   4    2.35    0.53
  -5   2  13    2.31    0.44
   6   2   6    1.12    0.79
  -2   1   3    0.94    0.41
  -6   0  14    0.00    0.46
  -4   0   6    0.34    0.46
  -6  -1  13    0.15    0.52
   4  -1   0    5.93    0.42
   7  -1   5    2.09    0.48
   7  -2   5    0.81    0.46
   3  -3   0    2.44    0.41
   5  -3   2    0.56    0.43
   1  -4   1   10.23    0.46
   3  -4   1    3.21    0.34
   4  -4   2    1.93    0.41
   5  -4   3    0.62    0.36
  -1  -5   4   -0.03    0.42
   0  -5   3   19.58    0.45
   1  -6   5    3.27    0.46
   2  -6   5    0.19    0.42
   0   5  11    3.05    0.42
   3   5  11   -0.42    0.45
  -2   4  10    4.52    0.38
  -1   4   8    0.87    0.36
   0   4   7   11.13    0.44
  -1   3   5    3.27    0.46
   5   3   6    1.21    0.91
  -4   2   9    3.39    0.40
  -1   2   3   24.41    0.52
  -4   1   7    1.50    0.40
  -5   0   9    8.81    0.48
  -2   0   2   25.18    0.71
   6  -1   3    3.19    0.48
   6  -2   3    0.34    0.38
   1  -3   0    4.67    0.40
   2  -3   0    1.04    0.36
   4  -3   1    0.45    0.38
   6  -3   4   -1.07    0.44
   2  -4   1    6.03    0.39
   1  -5   3   19.15    0.49
   3  -5   3    2.38    0.37
   4  -5   4    1.12    0.38
  -1  -6   7   -0.60    0.46
   0  -6   6    0.59    0.44
  -2   5  14    1.04    0.39
  -1   5  12    1.20    0.37
   1   5  10    0.39    0.38
   2   5  10   -0.31    0.39
  -3   4  12    4.51    0.40
   2   4   6    0.32    0.42
  -4   3  11    3.74    0.43
   0   3   4    1.73    0.39
  -5   2  12   -0.14    0.37
  -3   2   6    0.40    0.38
   0   2   2   19.31    0.59
  -5   1  10    0.29    0.36
  -6   0  13    0.68    0.49
  -2  -4   4    0.06    0.46
   5  -4   4    0.92    0.43
  -3  -5   8    0.66    0.51
  -2  -5   6    0.55    0.46
   2  -5   3    1.98    0.37
  -2   5  13    3.42    0.46
   0   5  10   -0.43    0.43
   3   5  10    0.34    0.45
  -3   4  11    2.54    0.42
  -2   4   9    1.20    0.36
   1   4   6    0.95    0.39
   5   4   9    2.12    0.61
  -3   3   8   19.23    0.42
  -2   3   6    6.64    0.42
  -4   2   8    6.09    0.51
  -2   2   4    5.71    0.43
  -6   1  14    0.45    0.48
   7   1   7    1.20    0.60
   7   0   6    0.51    0.47
  -6  -1  12    1.07    0.56
   0  -2   0   42.00    0.61
   3  -2   0    7.00    0.41
   5  -2   2   -0.24    0.36
   0  -4   2    0.65    0.39
   3  -4   2    1.02    0.33
   4  -4   3    0.40    0.43
   0  -5   4    1.32    0.46
   3  -5   4    1.40    0.38
   4  -5   5   -0.44    0.43
   1  -6   6    0.28    0.38
   2  -6   6    0.12    0.38
  -1   5  11    0.03    0.39
   1   5   9    2.85    0.48
   2   5   9    1.11    0.45
  -4   4  14    0.37    0.40
  -1   4   7    6.77    0.40
   0   4   6    0.74    0.40
  -5   3  14    0.87    0.41
  -4   3  10    2.64    0.44
  -5   2  11    0.03    0.37
  -5  -1   8    0.25    0.53
   5  -1   2    2.22    0.47
   7  -1   6   -0.03    0.47
  -2  -2   2   16.91    0.75
   4  -2   1   18.42    0.45
   6  -2   4   -0.32    0.44
   3  -3   1    1.01    0.40
   5  -3   3    7.51    0.42
   6  -3   5    0.50    0.42
  -3  -4   6    0.71    0.51
  -1  -4   3    0.89    0.40
   2  -4   2    2.58    0.45
  -1  -5   5    0.02    0.36
   2  -5   4    0.95    0.41
  -1  -6   8   -0.23    0.46
   0  -6   7    0.18    0.39
  -2   5  12    1.25    0.40
  -1   5  10   -0.02    0.43
   0   5   9    2.88    0.45
  -4   4  13   -0.08    0.40
  -3   4  10    8.63    0.39
  -2   4   8    2.35    0.34
   3   4   6    1.82    0.46
   4   4   7   -0.17    0.50
   1   3   3    4.94    0.48
   2   3   3    5.09    0.57
  -6   1  13    0.68    0.44
  -5   1   9    2.18    0.35
  -4   1   6    0.55    0.47
  -3   1   4   13.50    0.47
   5   1   3    0.70    0.65
  -6   0  12    0.24    0.42
  -5   0   8    0.33    0.43
   3  -1   0   13.51    0.48
   6  -1   4    1.73    0.45
   2  -2   0   48.24    0.58
  -2  -3   3    2.40    0.55
   0  -3   1    2.40    0.41
   4  -3   2    1.27    0.38
   1  -4   2    3.40    0.37
   5  -4   5    1.60    0.39
   1  -5   4    2.80    0.38
   4  -5   6   -0.28    0.44
   1  -6   7    0.16    0.39
   2  -6   7   -0.52    0.38
   3   5   9    0.64    0.48
  -5   3  13    0.90    0.39
  -3   3   7   11.80    0.42
  -2   3   5    6.96    0.47
  -1   3   4   16.50    0.45
  -5   2  10    0.53    0.45
  -4   2   7   11.04    0.52
  -3   2   5   -0.55    0.38
   6   1   5    6.04    0.59
  -4  -1   5    0.67    0.62
  -3  -1   3   12.65    0.82
   4  -1   1    4.35    0.42
  -6  -2  12   -0.22    0.64
  -1  -2   1   17.04    0.58
   1  -2   0   79.94    0.72
   1  -3   1   11.69    0.49
   2  -3   1    3.00    0.38
   3  -4   3   -0.01    0.33
   4  -4   4    1.11    0.38
  -3  -5   9    0.01    0.51
  -2  -5   7    0.29    0.47
   3  -5   5   -0.06    0.38
   0  -6   8    0.40    0.45
  -2   5  11    5.20    0.41
   1   5   8    0.20    0.38
   2   5   8    0.40    0.42
  -4   4  12    1.15    0.39
  -3   4   9    7.25    0.39
  -1   4   6    2.92    0.41
   1   4   5   23.36    0.51
   2   4   5   26.97    0.57
  -5   3  12    0.83    0.37
  -4   3   9    4.06    0.42
   0   3   3    0.65    0.38
  -6   1  12    0.47    0.48
  -4   0   5    4.82    0.53
  -3   0   3   29.62    0.66
  -6  -1  11    0.26    0.60
   0  -1   0    0.03    0.55
   7  -1   7    1.69    0.51
   5  -2   3    0.30    0.36
   6  -2   5    0.96    0.46
  -1  -3   2   18.69    0.51
   5  -3   4    2.63    0.40
   6  -3   6   -0.04    0.38
   0  -4   3    4.79    0.48
   5  -4   6    0.27    0.43
  -1  -5   6    1.91    0.43
   0  -5   5    8.59    0.41
   2  -5   5    1.03    0.37
  -1  -6   9    0.12    0.41
   1  -6   8    0.55    0.46
  -2   5  10    1.32    0.42
  -1   5   9    1.98    0.37
   0   5   8    1.43    0.39
  -4   4  11    0.64    0.42
  -2   4   7   -0.68    0.34
   0   4   5   16.24    0.47
  -2   2   3    7.31    0.43
  -1   2   2    2.34    0.44
  -5   1   8    1.31    0.40
  -2   1   2   17.93    0.51
  -1   1   1   28.27    0.83
  -6   0  11   -0.27    0.42
   2  -1   0    7.65    0.53
  -5  -2   8    0.15    0.79
   3  -2   1   16.72    0.45
   4  -2   2    0.47    0.45
  -4  -3   7   19.17    0.99
   3  -3   2   -0.20    0.40
   4  -3   3    4.59    0.39
  -4  -4   9    2.82    0.61
  -2  -4   5    0.28    0.45
   1  -4   3    3.26    0.46
   2  -4   3    0.75    0.37
   1  -5   5   12.33    0.43
   3  -5   6    0.20    0.37
   4  -5   7    1.16    0.41
  -3   5  12    0.00    0.40
  -5   3  11   -0.07    0.35
  -4   3   8   28.49    0.47
  -3   3   6   11.23    0.43
  -5   2   9    0.53    0.37
   1   2   1    0.11    0.46
   5  -1   3    0.80    0.46
   6  -1   5    6.07    0.48
   6  -3   7    0.02    0.39
  -1  -4   4    3.02    0.48
   3  -4   4    1.95    0.35
   4  -4   5    0.44    0.37
   0  -6   9    0.42    0.39
   1  -6   9    0.76    0.46
  -3   5  11    0.83    0.41
  -2   5   9    3.10    0.42
  -1   5   8    0.44    0.37
   1   5   7    7.70    0.41
   3   5   8    0.26    0.44
  -4   4  10    0.60    0.39
  -3   4   8    7.34    0.39
  -2   4   6    0.33    0.41
  -1   4   5    0.64    0.41
   3   4   5    1.60    0.52
   5   4   8    0.38    0.63
  -2   3   4    7.41    0.41
  -1   3   3  123.82    0.76
   3   3   3    0.33    0.58
  -6   2  12    0.21    0.45
  -4   2   6   22.92    0.47
  -3   2   4    3.36    0.41
  -6   1  11    0.73    0.41
  -4   1   5    0.99    0.42
   3   1   1    0.84    0.69
   4   1   2    1.30    0.61
  -5   0   7    2.87    0.46
   1  -1   0   38.87    0.86
   6  -2   6    1.09    0.46
  -3  -3   5    1.70    0.61
   2  -3   2    4.25    0.45
   5  -3   5    5.83    0.40
  -3  -4   7    1.32    0.51
   5  -4   7   -0.14    0.39
  -3  -5  10    0.10    0.53
  -2  -5   8    1.96    0.46
   0  -5   6    0.05    0.37
   1  -5   6    0.49    0.44
   2  -5   6   -0.16    0.38
   3  -5   7    0.93    0.39
   4  -5   8    0.34    0.42
   0   5   7    0.69    0.37
   2   5   7    0.89    0.45
   1   4   4    3.42    0.47
  -5   3  10    1.56    0.37
   4   3   4    1.15    0.78
   0   2   1   25.72    0.63
  -3   1   3   13.70    0.46
  -6   0  10    0.35    0.47
  -5  -1   7    6.95    0.61
   2  -2   1   10.50    0.51
   5  -2   4    1.70    0.36
   0  -3   2    7.60    0.43
   4  -3   4    1.09    0.43
   6  -3   8   -0.12    0.46
   2  -4   4    2.59    0.37
   4  -4   6    0.37    0.42
  -1  -5   7    0.40    0.38
   0  -6  10    0.05    0.40
   0   6  10    1.14    0.46
  -3   5  10    0.76    0.38
  -1   5   7    1.67    0.39
  -4   4   9    3.59    0.43
  -3   4   7    1.93    0.36
   0   4   4    1.80    0.42
   2   4   4    2.45    0.49
   4   4   6    0.06    0.51
  -4   3   7   19.39    0.43
  -3   3   5    0.49    0.40
   1   3   2    0.78    0.48
  -5   2   8    0.73    0.36
   2   2   1    8.81    0.69
  -6   1  10   -0.75    0.45
  -5   1   7    7.07    0.38
  -6  -1  10    0.07    0.55
   3  -1   1    1.19    0.41
   4  -1   2    1.85    0.41
   0  -2   1   27.27    0.63
  -5  -3  10    0.37    1.05
   1  -3   2    0.65    0.39
   3  -3   3   -0.49    0.41
   5  -3   6    1.13    0.44
   0  -4   4    1.20    0.40
   1  -4   4    2.72    0.40
   3  -4   5    0.96    0.35
   5  -4   8    0.00    0.40
   2  -5   7    0.86    0.38
   3  -5   8   -0.32    0.41
  -2   5   8    2.27    0.38
   0   5   6    1.20    0.43
   1   5   6   -0.37    0.40
  -5   3   9    0.36    0.43
   0   3   2    7.56    0.44
  -6   2  11   -0.44    0.38
   6  -1   6    1.35    0.45
  -6  -2  11    0.19    0.71
   1  -2   1    0.29    0.43
   3  -2   2    1.00    0.40
   4  -2   3    4.02    0.41
   6  -2   7   -0.04    0.40
   6  -3   9    0.31    0.47
  -2  -5   9    1.33    0.46
   0  -5   7    0.35    0.36
   1  -5   7    6.70    0.42
   0   6   9   -0.04    0.46
   1   6   9    0.54    0.50
  -3   5   9    0.39    0.37
   2   5   6    0.64    0.46
   3   5   7    1.06    0.47
  -4   4   8    0.38    0.43
  -2   4   5    0.23    0.36
  -1   4   4    3.06    0.40
  -2   3   3    2.50    0.44
   2   3   2    4.55    0.56
  -4   2   5   -0.08    0.40
  -2   2   2   16.35    0.47
   6   1   6    0.70    0.50
  -4   0   4    8.36    0.53
   5  -1   4    0.46    0.37
   5  -2   5    0.02    0.36
  -1  -3   3  131.77    0.93
   4  -3   5    1.60    0.41
  -2  -4   6    1.08    0.44
  -1  -4   5    1.33    0.39
   2  -4   5   23.65    0.49
   4  -4   7    0.67    0.37
   5  -4   9    2.77    0.42
  -3  -5  11    0.30    0.49
  -1  -5   8    0.65    0.44
   2  -5   8   -0.55    0.41
   3  -5   9   -0.56    0.47
  -2   5   7    0.14    0.37
  -1   5   6    2.88    0.39
  -3   4   6    0.70    0.33
  -4   3   6   20.04    0.44
  -3   3   4    0.95    0.48
  -1   3   2   19.88    0.46
  -6   2  10    0.69    0.37
  -5   2   7    0.00    0.37
  -3   2   3    6.18    0.41
  -1   2   1   16.33    0.50
   6   2   7    0.37    0.60
  -6   1   9    0.52    0.43
  -4   1   4    1.02    0.49
   5   1   4    0.20    0.60
  -6   0   9    0.52    0.47
  -5   0   6    0.24    0.44
   6  -2   8    2.44    0.46
  -2  -3   4    7.64    0.53
   2  -3   3    5.08    0.40
   3  -3   4    2.19    0.49
   5  -3   7    0.63    0.38
  -4  -4  10    0.63    0.57
   3  -4   6    1.22    0.34
   5  -4  10    0.90    0.46
  -1   6   9    0.01    0.38
  -3   5   8    0.51    0.38
   4   5   8    0.29    0.58
  -5   4  10    0.82    0.38
   0   4   3    5.38    0.40
   1   4   3    3.35    0.41
  -5   3   8    0.56    0.38
  -5   1   6    2.89    0.37
   0   1   0    0.03    0.56
   1   1   0   31.40    1.18
   6  -1   7    2.28    0.48
  -3  -4   8    7.84    0.54
   0  -4   5   17.31    0.48
   1  -4   5   23.48    0.49
   4  -4   8    0.34    0.38
   0  -5   8    0.83    0.38
   1  -5   8    0.17    0.38
   3  -5  10    0.39    0.39
   0   6   8    0.79    0.40
   1   6   8    0.19    0.40
  -2   5   6   -0.19    0.43
   0   5   5    8.40    0.41
   1   5   5   12.68    0.41
  -4   4   7    8.41    0.39
  -3   4   5    1.47    0.38
  -2   4   4   -0.39    0.36
   3   4   4    1.85    0.54
  -6   2   9    0.60    0.44
  -2   1   1   38.00    0.59
  -2   0   1    4.89    0.60
   4  -1   3    1.81    0.48
   2  -2   2   22.96    0.49
   4  -2   4    3.95    0.42
   5  -2   6    0.36    0.36
   0  -3   3    0.69    0.41
   1  -3   3    4.67    0.41
   4  -3   6    1.83    0.44
   5  -3   8    0.72    0.37
   2  -4   6   -0.58    0.40
   3  -4   7    0.35    0.38
  -3  -5  12    0.27    0.52
  -2  -5  10    1.10    0.46
  -1  -5   9    1.31    0.40
   2  -5   9    0.06    0.38
  -1   6   8   -0.40    0.38
  -4   5   9    0.22    0.40
  -3   5   7    0.54    0.38
  -1   5   5   -0.99    0.40
   2   5   5    0.60    0.45
   3   5   6    1.52    0.50
  -5   4   9    0.90    0.38
  -1   4   3    0.15    0.37
   2   4   3    0.62    0.48
  -6   3  10   -0.13    0.40
  -5   3   7    3.15    0.39
  -4   3   5    3.62    0.38
  -5   2   6    5.52    0.38
  -4   2   4   45.03    0.55
  -3   1   2   12.85    0.48
  -3   0   2    0.67    0.51
  -6  -1   9    0.21    0.56
   2  -1   1   17.04    0.49
   5  -1   5    1.34    0.44
   3  -2   3   10.07    0.44
   6  -2   9   -0.26    0.39
  -1  -4   6    4.28    0.50
   4  -4   9    0.29    0.38
   0  -5   9    0.97    0.45
   1  -5   9    1.73    0.40
   2  -5  10    1.06    0.44
   3  -5  11   -0.77    0.40
  -2   6   8    0.62    0.46
   0   6   7    0.98    0.38
   1   6   7    0.31    0.44
  -4   4   6    3.11    0.38
  -3   3   3    0.29    0.42
  -2   3   2   11.52    0.41
   0   3   1    2.43    0.40
   1   3   1   12.28    0.54
   4   2   3    2.84    0.98
  -6   1   8    0.36    0.38
  -6   0   8    0.07    0.52
  -4  -1   4    1.14    0.70
   3  -1   2   42.68    0.59
   6  -1   8    0.34    0.46
  -1  -2   2    1.79    0.49
   2  -3   4    3.52    0.41
   3  -3   5    0.04    0.38
   5  -3   9    0.07    0.44
  -2  -4   7    0.29    0.41
   1  -4   6    0.88    0.42
  -2  -5  11    1.70    0.49
  -1   6   7    0.93    0.37
  -4   5   8   -0.27    0.38
  -3   5   6    1.50    0.41
  -2   5   5    1.40    0.38
   0   5   4    1.39    0.37
   1   5   4    2.41    0.44
  -5   4   8    0.30    0.38
  -3   4   4    0.94    0.37
  -2   4   3    2.04    0.39
   0   4   2    0.47    0.46
   4   4   5    0.35    0.63
   5   4   7    0.03    1.00
  -6   3   9    0.28    0.44
  -6   2   8    1.77    0.45
  -3   2   2    0.52    0.39
  -2   2   1   21.82    0.50
  -5   1   5    4.48    0.46
  -4   1   3    3.25    0.49
   6   1   7    0.32    0.47
  -5  -1   6    2.85    0.64
   1  -2   2   10.66    0.48
   4  -2   5    2.39    0.50
   5  -2   7    0.36    0.38
   6  -2  10    0.10    0.40
   4  -3   7    1.46    0.40
   0  -4   6    1.09    0.42
   2  -4   7   10.75    0.41
   3  -4   8    0.13    0.38
   4  -4  10   -0.40    0.40
  -1  -5  10   -0.20    0.42
   0  -5  10   -0.31    0.42
   1  -5  10    0.30    0.39
   2  -5  11   -0.55    0.38
   2   6   7   -0.34    0.47
  -1   5   4   -0.43    0.37
   4   5   7    1.42    0.59
   1   4   2    2.28    0.50
  -5   3   6   -0.22    0.38
  -4   3   4    1.61    0.39
  -1   3   1    3.22    0.40
  -5   2   5    0.67    0.44
   0   2   0   40.58    0.63
  -1   1   0   33.82    0.75
  -5   0   5    1.44    0.53
   0  -2   2   18.87    0.58
  -3  -3   6   12.70    0.68
  -1  -3   4   15.44    0.48
   1  -3   4    2.97    0.40
   5  -3  10   -0.84    0.39
  -4  -4  11    0.12    0.58
  -3  -4   9    4.74    0.54
   4  -4  11    0.47    0.43
  -2   6   7   -0.05    0.40
  -1   6   6    0.52    0.43
   0   6   6   -0.22    0.39
   1   6   6    0.38    0.46
  -4   5   7    0.66    0.39
  -5   4   7    0.58    0.39
  -4   4   5    8.27    0.42
  -1   4   2    0.21    0.37
  -6   3   8   -0.39    0.45
  -4   2   3    5.09    0.41
   5   2   5    0.16    0.61
  -6   1   7    2.40    0.47
  -4   0   3    6.19    0.52
   6   0   8   -0.18    0.42
  -1  -1   1   32.00    1.23
   4  -1   4    0.48    0.48
   5  -1   6    1.76    0.37
   6  -1   9    0.39    0.44
  -3  -2   4    3.65    0.89
   3  -2   4    1.57    0.46
   6  -2  11    0.49    0.38
   0  -3   4    1.85    0.40
   3  -3   6    0.96    0.37
   4  -3   8    1.21    0.44
  -1  -4   7    6.59    0.50
   1  -4   7   18.39    0.50
   3  -4   9    3.76    0.38
  -2  -5  12   -0.09    0.46
  -1  -5  11    0.27    0.39
   1  -5  11    1.20    0.38
   2  -5  12    0.01    0.41
  -3   5   5    1.04    0.38
  -2   5   4   -0.15    0.37
   0   5   3   15.84    0.50
   2   5   4    0.46    0.48
   3   5   5    0.20    0.51
  -3   3   2   -0.24    0.41
  -2   3   1   10.98    0.48
  -6   2   7    2.24    0.42
  -1   2   0   74.14    0.70
   1   2   0   80.30    0.90
   1  -1   1   16.06    0.65
  -2  -2   3    7.21    0.67
   2  -2   3    3.75    0.41
   5  -2   8    1.16    0.39
  -2  -3   5    7.09    0.54
   2  -3   5    1.39    0.41
   5  -3  11   -0.27    0.36
  -2  -4   8    1.43    0.45
   0  -4   7    9.22    0.44
   2  -4   8    0.50    0.35
   4  -4  12    0.19    0.40
   0  -5  11    1.19    0.37
   2  -5  13   -0.16    0.40
  -2   6   6    2.22    0.41
   0   6   5    0.72    0.44
   2   6   6    0.17    0.46
  -4   5   6   -0.15    0.39
  -1   5   3    0.19    0.37
   1   5   3   16.93    0.50
  -5   4   6    1.32    0.42
  -3   4   3   -0.08    0.33
  -2   4   2    0.70    0.38
  -5   3   5    2.11    0.40
  -4   3   3    1.89    0.45
   2   3   1    3.11    0.57
   3   3   2    0.12    0.66
   6   2   8    1.41    0.61
   4   1   3    1.12    0.58
   5   1   5    0.60    0.55
   6   1   8    0.49    0.49
  -6   0   7   -0.32    0.46
   6  -1  10    0.78    0.44
   4  -2   6    0.92    0.41
  -4  -3   8   24.27    0.85
   3  -4  10    0.24    0.37
   4  -4  13   -0.19    0.46
  -2  -5  13    1.65    0.49
  -1  -5  12    0.34    0.45
   0  -5  12    0.53    0.44
   1  -5  12   -0.16    0.38
  -1   6   5   -0.66    0.38
   1   6   5    4.05    0.47
  -3   5   4    1.88    0.41
  -4   4   4    9.35    0.42
   0   4   1    1.26    0.47
   2   4   2    3.96    0.52
   3   4   3    0.15    0.55
  -6   3   7    0.68    0.39
   6   3   9    0.16    0.71
  -5   2   4   13.62    0.42
  -3   2   1    1.83    0.40
  -5   1   4    8.11    0.42
  -3   1   1   29.68    0.55
  -6  -1   8    0.64    0.55
   3  -1   3    1.77    0.41
   5  -1   7   -0.07    0.44
   5  -2   9    0.33    0.41
   1  -3   5   10.57    0.50
   3  -3   7    6.36    0.38
   4  -3   9   -0.20    0.36
   5  -3  12    0.23    0.38
   1  -4   8    1.44    0.38
   2  -4   9    7.08    0.40
   3  -4  11    7.60    0.46
   1  -5  13    0.21    0.37
  -2   6   5    1.59    0.40
  -4   5   5    0.35    0.41
  -2   5   3   -0.05    0.36
  -1   4   1    1.01    0.37
  -1   3   0    4.81    0.40
   0   3   0    0.09    0.40
  -6   2   6    0.37    0.41
  -4   2   2   10.28    0.43
  -2   2   0   49.02    0.58
  -6   1   6    0.77    0.46
  -4   1   2    1.53    0.51
  -2   1   0    5.73    0.54
   5   0   6   -0.08    0.42
   6   0   9    0.27    0.44
   0  -1   1    1.65    0.50
   2  -1   2  103.26    0.83
   3  -2   5    0.53    0.45
   2  -3   6    6.89    0.42
   5  -3  13   -0.81    0.38
  -4  -4  12    0.99    0.56
  -3  -4  10    5.97    0.52
  -1  -4   8    0.59    0.38
   0  -4   8    4.09    0.42
  -2  -5  14   -0.13    0.49
  -1  -5  13    0.16    0.39
   0  -5  13    0.77    0.39
   1  -5  14    0.38    0.44
  -1   6   4   -0.49    0.39
   0   6   4    0.86    0.43
  -1   5   2    0.45    0.42
   0   5   2    5.55    0.44
  -5   4   5    2.12    0.38
  -3   4   2    0.25    0.33
   1   4   1    9.31    0.44
  -6   3   6    0.35    0.45
  -5   3   4    1.34    0.37
  -3   3   1    1.88    0.41
   5   3   6    1.12    0.93
   4  -1   5    1.88    0.40
   6  -1  11    0.09    0.39
   1  -2   3   16.82    0.49
   4  -2   7    0.23    0.42
   5  -2  10    0.46    0.39
  -1  -3   5    2.68    0.41
   0  -3   5    1.78    0.40
   3  -3   8    3.92    0.43
   4  -3  10    0.05    0.37
  -2  -4   9    0.64    0.45
   1  -4   9    3.31    0.45
   2  -4  10    3.28    0.40
   3  -4  12    0.82    0.38
  -2   6   4    2.22    0.45
   1   6   4    0.74    0.43
   2   6   5    0.22    0.49
  -3   5   3    0.22    0.37
   2   5   3    2.75    0.40
   4   5   6   -0.15    0.54
  -4   4   3    3.13    0.38
  -2   4   1   15.17    0.43
  -4   3   2    1.44    0.40
  -2   3   0    1.37    0.36
   1   3   0    4.51    0.45
  -5   0   4    1.94    0.50
  -1   0   0    2.99    0.57
   5  -1   8    0.66    0.44
   2  -2   4   67.74    0.63
   4  -3  11   -0.26    0.44
   3  -4  13    3.06    0.43
  -1  -5  14    0.39    0.38
   0  -5  14   -0.34    0.40
  -4   5   4    0.59    0.38
  -2   5   2    0.76    0.37
   1   5   2    2.69    0.37
   3   5   4    1.21    0.47
  -5   4   4    3.90    0.43
  -6   2   5    4.54    0.48
  -5   2   3    1.25    0.39
  -7   1   8    0.81    0.52
  -5   1   3    4.05    0.48
   6   1   9   -0.32    0.46
  -7   0   9    0.16    0.52
  -6   0   6    0.08    0.49
   6   0  10   -0.05    0.41
   6  -1  12    0.21    0.42
   4  -2   8    1.26    0.46
   5  -2  11    1.32    0.37
   1  -3   6    0.23    0.37
   2  -3   7   29.99    0.52
  -4  -4  13    0.17    0.55
  -1  -4   9    1.42    0.39
   0  -4   9    2.17    0.41
   2  -4  11    2.13    0.37
   0  -5  15    0.46    0.41
  -3   6   4    1.37    0.42
  -1   6   3    1.35    0.37
   0   6   3    4.17    0.45
  -3   4   1    1.59    0.33
  -1   4   0    3.05    0.37
   0   4   0    0.91    0.45
  -6   3   5    0.70    0.37
  -5   3   3    0.86    0.38
  -3   2   0    7.44    0.50
   6   2   9    0.14    0.56
  -6   1   5    3.34    0.45
   5   1   6    2.38    0.54
  -3   0   1    0.54    0.51
   5   0   7    0.03    0.40
  -5  -1   5    4.10    0.71
   6  -1  13   -0.94    0.48
  -1  -2   3   24.93    0.61
   0  -2   3    8.23    0.45
   3  -2   6    1.68    0.38
  -5  -3  11   -0.26    0.71
  -3  -3   7   12.82    0.66
  -2  -3   6    6.26    0.54
   3  -3   9   22.08    0.43
   4  -3  12    0.03    0.37
  -3  -4  11    1.92    0.48
  -2  -4  10    4.07    0.50
   1  -4  10    2.47    0.38
   2  -4  12    1.74    0.44
   3  -4  14   -0.16    0.41
  -2   6   3    0.87    0.40
  -4   5   3    1.53    0.39
  -3   5   2   -0.14    0.37
  -1   5   1    1.90    0.37
   0   5   1    4.95    0.38
  -4   4   2    1.00    0.38
  -2   4   0    1.14    0.38
   2   4   1    5.13    0.50
  -3   3   0    1.91    0.48
  -4   2   1    2.55    0.40
  -1   2  -1   -0.04    0.42
   0   2  -1   24.16    0.53
  -4   0   2    6.76    0.52
   6   0  11    0.49    0.51
   3  -1   4   26.92    0.51
   4  -1   6    1.70    0.39
   5  -1   9    0.27    0.35
   5  -2  12    0.52    0.37
   0  -3   6    2.30    0.50
   4  -3  13    1.54    0.44
   0  -4  10    0.80    0.43
   3  -4  15    1.59    0.40
   1   6   3    2.20    0.40
   2   6   4    0.23    0.41
  -2   5   1    0.05    0.37
   2   5   2   -0.16    0.44
  -5   4   3    1.02    0.39
   1   4   0    3.20    0.49
   4   4   4    0.88    0.69
  -4   3   1    0.22    0.40
  -1   3  -1   10.82    0.43
   0   3  -1    2.62    0.42
  -6   2   4    1.39    0.46
  -2   2  -1    9.57    0.51
  -7   1   7    0.33    0.52
  -4   1   1   20.91    0.57
  -3   1   0   11.99    0.48
   2  -2   5   53.21    0.58
   4  -2   9    0.59    0.37
   5  -2  13    0.85    0.44
  -1  -3   6    6.67    0.50
   2  -3   8    8.19    0.44
   3  -3  10    0.80    0.34
  -4  -4  14    0.09    0.53
  -1  -4  10    0.78    0.37
   1  -4  11    0.01    0.38
   2  -4  13    1.24    0.37
  -3   6   3    0.64    0.40
  -1   6   2    0.46    0.37
   0   6   2    1.69    0.46
   1   5   1    9.63    0.39
  -6   3   4    0.46    0.39
  -5   3   2    1.12    0.37
  -2   3  -1    2.91    0.37
  -5   2   2    4.72    0.40
   5   2   6    0.44    0.53
  -1   1  -1   14.38    0.77
  -7   0   8    0.29    0.55
   6   0  12    0.03    0.47
  -6  -1   7    1.47    0.63
   2  -1   3    0.76    0.48
   5  -1  10    1.16    0.45
   1  -2   4   36.55    0.55
   3  -2   7    0.56    0.38
  -4  -3   9    4.77    0.61
   1  -3   7    6.18    0.40
   4  -3  14    0.41    0.39
  -3  -4  12    1.78    0.50
  -2  -4  11    2.88    0.49
   0  -4  11    1.17    0.42
   1  -4  12    0.35    0.44
   2  -4  14   -0.23    0.39
  -2   6   2    0.32    0.38
  -4   5   2    1.06    0.37
  -3   5   1    3.57    0.37
  -1   5   0    1.06    0.42
  -4   4   1    3.08    0.38
  -3   4   0    0.06    0.33
  -1   4  -1    8.61    0.45
   3   4   2    0.55    0.55
  -7   2   6   -0.08    0.47
   6   2  10    0.60    0.57
  -6   1   4    2.18    0.47
  -5   1   2   34.87    0.58
   3   1   2   39.48    0.91
   4   1   4    0.51    0.55
  -6   0   5   -0.05    0.49
   4   0   5   -0.53    0.39
   5   0   8    0.34    0.42
   1  -1   2  783.05    2.22
   4  -1   7    0.87    0.46
   4  -2  10    0.65    0.36
   5  -2  14   -0.01    0.38
   2  -3   9   44.10    0.59
   3  -3  11   16.26    0.43
   4  -3  15    0.35    0.40
  -1  -4  11    3.88    0.45
   2  -4  15    0.58    0.44
  -3   6   2    0.26    0.40
   1   6   2    1.73    0.47
   2   6   3    0.19    0.45
  -2   5   0    1.33    0.37
   0   5   0   -0.10    0.35
   3   5   3    2.48    0.47
   4   5   5   -0.06    0.58
  -5   4   2    2.71    0.42
  -2   4  -1    5.51    0.39
   0   4  -1    1.50    0.39
  -4   3   0    0.65    0.40
   2   3   0    1.21    0.49
  -4   2   0    0.45    0.45
   2   2   0   45.01    1.01
  -5   0   3    0.05    0.49
  -2   0   0   27.81    0.76
   6   0  13    0.40    0.45
   3  -1   5   -0.21    0.46
   5  -1  11   -0.18    0.42
   5  -2  15   -0.10    0.41
  -2  -3   7    0.07    0.49
   0  -3   7    0.72    0.46
   3  -3  12    4.80    0.40
   4  -3  16   -0.16    0.40
  -3  -4  13    0.94    0.48
   0  -4  12    0.54    0.44
   1  -4  13    0.58    0.36
   2  -4  16   -0.24    0.39
  -2   6   1    0.27    0.44
  -1   6   1    5.87    0.39
   0   6   1   11.06    0.49
  -4   5   1    0.36    0.41
  -6   3   3    0.09    0.37
  -5   3   1    0.55    0.42
  -3   3  -1    1.01    0.40
   1   3  -1    3.95    0.43
  -6   2   3    1.74    0.40
  -3   2  -1   19.60    0.46
   1   2  -1   16.53    0.57
  -7   1   6    0.92    0.48
  -2   1  -1   14.58    0.48
   0   1  -1    1.04    0.49
  -4  -1   3    3.49    0.81
   2  -2   6   38.78    0.53
   3  -2   8    2.88    0.37
   4  -2  11    0.85    0.39
  -3  -3   8   14.55    0.67
  -1  -3   7    4.01    0.50
   1  -3   8   12.98    0.43
   2  -3  10   10.14    0.48
  -2  -4  12    1.58    0.41
  -1  -4  12    0.38    0.41
   1  -4  14    0.26    0.38
   2  -4  17    0.42    0.39
  -5   5   2    3.30    0.44
  -3   5   0    0.42    0.36
   1   5   0    0.96    0.42
   2   5   1    0.53    0.49
  -6   4   3    0.29    0.41
  -4   4   0    0.71    0.38
  -3   4  -1    3.47    0.34
  -1   3  -2    0.51    0.38
  -7   2   5    1.55    0.44
  -5   2   1    1.54    0.39
   6   1  12    0.70    0.46
   5   0   9    0.53    0.43
  -3  -1   2   14.09    1.03
   4  -1   8    3.41    0.49
   5  -1  12    0.08    0.44
   0  -2   4    2.35    0.40
   3  -3  13    1.22    0.37
  -3  -4  14    0.40    0.44
   0  -4  13   -0.18    0.39
   1  -4  15    0.68    0.43
  -3   6   1    0.60    0.40
   3   6   4    0.60    0.53
  -2   5  -1    1.40    0.38
  -1   5  -1    9.58    0.40
  -5   4   1    1.22    0.40
   1   4  -1    1.57    0.49
   2   4   0    1.38    0.54
  -2   3  -2    4.29    0.38
  -1   2  -2   13.01    0.48
   6   2  11    0.21    0.52
  -6   1   3    0.90    0.47
  -4   1   0    6.53    0.51
  -7   0   7    0.52    0.54
   4   0   6    6.54    0.50
  -2  -2   4    5.56    0.50
   1  -2   5   41.97    0.56
   4  -2  12    1.50    0.38
  -5  -3  12    0.07    0.58
   1  -3   9    0.20    0.37
   2  -3  11    0.61    0.33
   3  -3  14    0.22    0.38
  -2  -4  13    3.35    0.41
  -1  -4  13    3.43    0.40
   0  -4  14   -0.11    0.43
   1  -4  16    0.61    0.40
  -2   6   0    0.80    0.38
  -1   6   0    0.29    0.37
   1   6   1    0.16    0.39
   2   6   2    1.02    0.44
  -4   5   0   -0.20    0.38
   0   5  -1    5.20    0.38
  -6   4   2    0.73    0.46
  -2   4  -2    4.09    0.39
  -1   4  -2    2.78    0.37
  -6   3   2    0.17    0.37
  -4   3  -1    0.88    0.39
   0   3  -2    6.93    0.43
  -6   2   2    0.87    0.47
  -2   2  -2   26.66    0.50
  -3   1  -1    1.12    0.50
   6   1  13   -0.05    0.46
   5  -1  13    2.20    0.39
  -1  -2   4   -0.05    0.46
   3  -2   9    3.36    0.41
   4  -2  13    1.11    0.37
  -4  -3  10    1.73    0.54
   0  -3   8    4.80    0.39
   3  -3  15    0.10    0.37
  -3  -4  15    0.09    0.48
  -2  -4  14    1.03    0.50
  -1  -4  14    0.24    0.44
   0  -4  15   -0.16    0.41
   1  -4  17   -0.10    0.39
  -3   6   0   -0.49    0.39
   0   6   0   17.68    0.46
  -5   5   1    0.51    0.39
  -3   5  -1    0.11    0.36
  -5   4   0    1.33    0.45
  -4   4  -1    1.15    0.36
   0   4  -2    0.76    0.44
   5   4   7    0.28    0.95
  -5   3   0    0.80    0.36
  -3   3  -2    0.21    0.39
  -7   2   4    0.62    0.46
  -4   2  -1   21.94    0.45
   0   2  -2   19.71    0.59
  -7   1   5    0.40    0.47
  -5   1   1   15.24    0.45
  -6   0   4    1.05    0.50
  -4   0   1    3.56    0.49
   5   0  10   -0.31    0.36
   2  -1   4    6.80    0.42
   3  -1   6   22.38    0.49
   4  -1   9    3.02    0.40
   5  -1  14    0.49    0.37
   2  -2   7   53.23    0.56
   4  -2  14    2.52    0.39
  -2  -3   8    1.67    0.50
  -1  -3   8    0.21    0.49
   1  -3  10    5.87    0.48
   2  -3  12    2.43    0.34
   3  -3  16   -0.12    0.39
   3  -3  17   -0.28    0.42
  -3  -4  16    1.33    0.46
   0  -4  16   -0.03    0.42
   1  -4  18   -0.33    0.39
   3   5   2    2.50    0.52
  -3   4  -2    0.47    0.33
   3   3   1    1.17    0.66
  -5   2   0    0.44    0.38
  -3   2  -2    1.61    0.39
   5   2   7    0.09    0.49
  -3   0   0    1.69    0.56
   3   0   4   41.45    0.69
   5  -1  15    0.00    0.40
   3  -2  10    7.91    0.40
   4  -2  15    0.77    0.36
  -3  -3   9   26.41    0.73
   0  -3   9    0.00    0.43
   2  -3  13    2.62    0.43
   3  -3  18    0.31    0.41
  -2  -4  15   -0.28    0.36
  -1  -4  15   -0.04    0.38
   0  -4  17   -0.36    0.42
  -2   6  -1   -0.33    0.38
  -1   6  -1    0.45    0.37
   1   6   0    0.86    0.44
  -5   5   0    1.95    0.42
  -4   5  -1    0.39    0.38
  -2   5  -2    0.50    0.36
  -1   5  -2    3.50    0.38
   1   5  -1    1.88    0.35
  -6   4   1   -0.32    0.40
  -6   3   1    0.29    0.37
   4   1   5    1.50    0.56
  -5   0   2    1.15    0.48
   4   0   7    5.43    0.49
   5   0  11    0.44    0.37
  -6  -1   6    0.22    0.73
   0  -1   2  119.83    1.13
   4  -1  10    2.53    0.38
   5  -1  16    0.60    0.40
  -4  -2   6   20.62    1.02
   1  -2   6   58.55    0.61
   4  -2  16    0.19    0.39
  -5  -3  13    0.50    0.59
   1  -3  11    1.13    0.42
   2  -3  14    1.11    0.42
  -2  -4  16    1.29    0.41
  -1  -4  16    0.11    0.39
   0  -4  18    0.42    0.41
  -3   6  -1   -0.57    0.40
   0   6  -1   11.99    0.48
   2   6   1   -0.08    0.45
   3   6   3    1.30    0.48
  -3   5  -2    2.31    0.37
   0   5  -2    5.11    0.37
   2   5   0    1.25    0.43
   4   5   4    0.13    0.59
  -5   4  -1    1.79    0.45
  -4   4  -2    2.26    0.37
  -2   4  -3    0.92    0.36
  -1   4  -3    3.19    0.36
   3   4   1    2.54    0.55
  -5   3  -1    0.57    0.36
  -4   3  -2    1.03    0.40
  -2   3  -3    4.52    0.38
  -1   3  -3    4.46    0.40
  -7   2   3   -0.33    0.46
  -6   2   1    0.63    0.38
   4   2   4    2.26    0.68
  -7   1   4    0.49    0.49
  -6   1   2    4.88    0.47
  -7   0   6   -0.01    0.54
  -5  -1   4   10.24    0.85
   1  -1   3  136.17    1.00
   3  -1   7    3.94    0.50
  -3  -2   5    0.20    0.63
   0  -2   5   74.04    0.72
   2  -2   8   11.05    0.42
   3  -2  11    8.70    0.38
   4  -2  17    0.00    0.38
  -1  -3   9    0.61    0.48
   2  -3  15    0.76    0.41
  -2  -4  17    0.10    0.43
  -1  -4  17    0.20    0.39
  -1  -4  18    0.49    0.44
  -3   4  -3    0.06    0.32
   1   4  -2    0.12    0.45
  -3   3  -3    0.43    0.41
   1   3  -2   19.30    0.51
  -4   1  -1    4.88    0.51
  -2   1  -2  118.64    0.91
   5   0  12    0.27    0.39
   4  -1  11    3.05    0.39
   3  -2  12   10.20    0.40
  -4  -3  11    1.43    0.52
  -2  -3   9   -0.19    0.40
   0  -3  10    1.29    0.39
   1  -3  12    1.13    0.34
   2  -3  16    0.39    0.37
  -2   6  -2    0.29    0.38
  -1   6  -2    1.79    0.36
  -5   5  -1    2.72    0.39
  -4   5  -2   -0.82    0.37
  -2   5  -3    1.99    0.37
  -1   5  -3   18.49    0.43
  -6   4   0   -0.56    0.39
   0   4  -3    5.29    0.40
   2   4  -1   16.30    0.57
  -6   3   0   -0.27    0.38
   0   3  -3    0.44    0.39
   2   3  -1   10.17    0.59
   5   3   7    0.54    0.59
  -5   2  -1    1.95    0.37
  -4   2  -2   -0.92    0.38
  -2   2  -3    3.49    0.40
  -1   2  -3   15.53    0.54
  -5   1   0   17.77    0.46
  -1   1  -2  743.21    2.17
   5   0  13    0.38    0.46
   2  -1   5    1.29    0.40
   2  -2   9   14.23    0.45
   3  -2  13    5.74    0.43
  -5  -3  14    0.12    0.56
  -3  -3  10    4.73    0.48
   1  -3  13    0.19    0.39
   2  -3  17    0.41    0.37
   2  -3  18    0.37    0.41
  -3   6  -2    0.14    0.40
   0   6  -2    2.19    0.44
   1   6  -1    5.26    0.49
  -3   5  -3    2.09    0.36
   1   5  -2    0.42    0.39
  -5   4  -2    0.27    0.40
  -4   4  -3    1.48    0.42
  -7   2   2    0.49    0.43
  -3   2  -3    8.97    0.49
   5   2   8    0.49    0.49
  -3   1  -2   48.09    0.66
   5   1  10    0.33    0.48
  -6   0   3    3.13    0.52
   4   0   8   11.41    0.44
   5   0  14    0.45    0.44
   3  -1   8    2.26    0.37
   4  -1  12   -0.17    0.36
  -1  -2   5   13.43    0.53
   1  -2   7   24.09    0.50
   3  -2  14   10.93    0.46
  -1  -3  10    0.27    0.38
   0  -3  11    0.13    0.40
   2  -3  19    0.80    0.39
   3   6   2    0.27    0.50
   0   5  -3   17.45    0.43
   3   5   1    0.20    0.50
  -6   4  -1   -0.03    0.44
  -2   4  -4    3.36    0.36
   4   4   3    1.19    1.01
  -5   3  -2    0.18    0.37
  -4   3  -3    4.66    0.38
  -2   3  -4    2.93    0.45
  -6   2   0    1.04    0.39
  -7   1   3    0.85    0.49
  -6   1   1    2.60    0.47
   3   0   5   12.91    0.57
   5   0  15    0.93    0.45
   4  -1  13    0.05    0.37
  -2  -2   5    0.62    0.52
   0  -2   6   24.30    0.54
   2  -2  10    7.06    0.42
   3  -2  15    0.03    0.42
  -4  -3  12   -0.38    0.52
  -2  -3  10    1.96    0.39
   0  -3  12    4.07    0.48
   1  -3  14    0.56    0.36
   1  -3  15    0.17    0.42
  -3   6  -3    0.37    0.40
  -2   6  -3    0.27    0.38
  -1   6  -3    2.65    0.37
   2   6   0    0.32    0.43
  -4   5  -3    0.28    0.37
  -2   5  -4    0.26    0.37
   2   5  -1    0.96    0.45
  -3   4  -4    1.57    0.33
  -1   4  -4    2.71    0.39
  -6   3  -1    0.24    0.37
  -3   3  -4    2.67    0.46
  -1   3  -4    2.53    0.38
   3   1   3    1.70    0.55
   5   1  11    0.23    0.43
  -7   0   5    0.23    0.55
  -4   0   0    1.23    0.53
   4   0   9    2.25    0.46
   5   0  16   -0.06    0.43
   4  -1  14    4.38    0.41
  -5  -2   8    0.23    0.77
   3  -2  16    1.22    0.37
  -3  -3  11    5.24    0.49
  -1  -3  11    1.21    0.46
   1  -3  16    0.36    0.35
  -3   5  -4    1.95    0.38
  -1   5  -4    1.39    0.38
  -5   4  -3   -0.31    0.40
  -5   2  -2   -0.53    0.36
  -4   2  -3    3.46    0.39
   0   2  -3    7.49    0.52
   1   2  -2    1.63    0.46
  -5   0   1    0.24    0.48
  -7  -1   8    0.10    0.84
   2  -1   6    1.01    0.40
   3  -1   9   -0.31    0.34
   4  -1  15    0.56    0.38
   4  -1  16    7.50    0.46
   1  -2   8   23.71    0.47
   2  -2  11    5.83    0.42
   3  -2  17    0.64    0.38
   3  -2  18    0.98    0.39
   3  -2  19   -0.25    0.39
  -4  -3  13   -0.09    0.49
  -2  -3  11    1.02    0.45
   0  -3  13    8.88    0.41
   1  -3  17    0.84    0.36
   1  -3  18   -0.04    0.38
   1  -3  19   -0.52    0.41
   0   6  -3    4.61    0.39
   1   6  -2    0.76    0.38
  -4   5  -4   -0.19    0.39
  -6   4  -2    0.50    0.44
  -4   4  -4    2.25    0.36
   0   4  -4    1.80    0.38
   1   4  -3    0.10    0.39
  -5   3  -3    7.59    0.40
  -4   3  -4    1.72    0.41
  -7   2   1    0.51    0.39
  -6   2  -1    0.45    0.46
   5   2   9    0.46    0.48
  -5   1  -1    3.88    0.41
  -4   1  -2    1.39    0.46
   5   1  12    0.66    0.44
   2   0   3    3.33    0.47
   1  -1   4  263.93    1.25
   4  -1  17    0.56    0.38
   4  -1  18    0.76    0.44
   2  -2  12    3.56    0.39
  -3  -3  12    5.68    0.50
  -1  -3  12   -0.19    0.37
   0  -3  14    1.05    0.38
   1  -3  20   -0.01    0.39
  -3   6  -4    1.03    0.38
  -2   6  -4    1.13    0.38
  -1   6  -4    2.03    0.41
   0   5  -4    2.25    0.36
   1   5  -3    0.71    0.34
  -3   4  -5    1.71    0.37
  -2   4  -5   24.50    0.43
  -6   3  -2    0.10    0.37
   0   3  -4    1.76    0.44
   1   3  -3  121.10    0.92
  -3   2  -4    1.31    0.46
  -2   2  -4   65.02    0.61
  -7   1   2    0.14    0.43
  -2   0  -1    5.34    0.57
   4   0  10    4.50    0.40
  -1  -1   2   17.63    0.90
   3  -1  10    0.61    0.34
   0  -2   7   29.76    0.54
   1  -2   9    3.29    0.37
   2  -2  13    2.97    0.40
  -4  -3  14   -0.06    0.50
  -2  -3  12    0.81    0.43
  -1  -3  13    1.12    0.43
   0  -3  15    7.57    0.43
   0  -3  16   -0.31    0.42
   2   6  -1    0.47    0.42
   3   6   1   -0.08    0.51
  -3   5  -5    0.30    0.37
  -2   5  -5    1.08    0.36
  -1   5  -5   11.21    0.48
   4   5   3    0.51    0.67
  -5   4  -4    0.37    0.39
  -1   4  -5   23.71    0.46
   2   4  -2    1.16    0.48
   3   4   0    0.49    0.57
  -2   3  -5    1.78    0.39
   5   3   8    0.33    0.51
  -1   2  -4   36.89    0.53
  -6   1   0    0.15    0.38
  -2   1  -3    0.73    0.46
   0   1  -2  115.47    1.11
   5   1  13    1.30    0.40
  -6   0   2   -0.15    0.50
  -3   0  -1    4.32    0.52
   3   0   6   56.66    0.65
   4   0  11    0.60    0.42
   3  -1  11    1.09    0.45
  -6  -2  11   -0.11    0.69
  -1  -2   6   15.85    0.50
   2  -2  14    1.81    0.37
  -3  -3  13    0.51    0.47
  -1  -3  14    1.07    0.41
   0  -3  17   -0.52    0.35
   0  -3  18   -0.46    0.44
   0  -3  19   -0.04    0.41
   0  -3  20   -0.07    0.42
  -2   6  -5    0.01    0.43
   0   6  -4    0.42    0.46
  -4   5  -5   -0.28    0.43
   2   5  -2    0.32    0.46
   3   5   0    0.49    0.51
  -4   4  -5    0.01    0.36
  -5   3  -4    1.70    0.45
  -3   3  -5    0.50    0.37
  -1   3  -5   10.66    0.41
  -7   2   0    0.60    0.44
  -5   2  -3    0.79    0.35
  -3   1  -3    2.01    0.40
   5   1  14    0.22    0.38
   5   1  15    0.41    0.44
  -7   0   4    0.21    0.55
  -6  -1   5    3.47    0.82
   0  -1   3   95.83    1.01
   2  -1   7    0.15    0.37
  -3  -2   6    0.49    0.58
   1  -2  10    0.71    0.35
   2  -2  15    0.52    0.33
  -4  -3  15   -0.08    0.43
  -4  -3  16   -0.37    0.50
  -2  -3  13    0.68    0.35
  -1  -3  15    1.06    0.42
  -1   6  -5    3.76    0.42
   1   6  -3    1.25    0.39
  -6   3  -3    0.36    0.36
  -4   3  -5    2.01    0.34
  -6   2  -2   -0.04    0.38
  -4   2  -4    2.63    0.39
   4   2   5    4.10    0.56
   5   1  16    0.36    0.47
   4   0  12   -0.17    0.35
   3  -1  12    0.69    0.40
  -2  -2   6    1.90    0.49
   0  -2   8   17.66    0.46
   2  -2  16    0.18    0.35
   2  -2  17    0.16    0.37
   2  -2  18    1.35    0.36
   2  -2  19   -0.27    0.38
   2  -2  20    0.32    0.38
  -3  -3  14   -0.18    0.38
  -2  -3  14    0.16    0.34
  -1  -3  16    0.55    0.37
  -1  -3  17   -0.62    0.40
  -3   5  -6    0.58    0.38
  -2   5  -6    0.60    0.36
   0   5  -5    7.89    0.39
   1   5  -4    0.05    0.41
  -5   4  -5    0.67    0.40
  -3   4  -6    1.58    0.32
  -2   4  -6    0.16    0.32
   0   4  -5   16.33    0.45
   1   4  -4    3.30    0.47
   2   3  -2   11.19    0.60
  -7   1   1    0.38    0.45
  -5   1  -2    2.04    0.37
  -4   1  -3    1.68    0.46
  -1   1  -3  133.09    0.97
   2   1   1   15.85    0.95
  -5   0   0   15.40    0.60
   3   0   7    1.89    0.46
   4   0  13    0.22    0.36
   1  -1   5   60.23    0.67
   2  -1   8    5.59    0.46
   3  -1  13    1.26    0.35
  -4  -2   7    7.84    0.77
   1  -2  11    0.36    0.37
  -3  -3  15    1.00    0.38
  -3  -3  16   -0.68    0.47
  -2  -3  15    0.25    0.37
  -2  -3  16    0.28    0.46
  -1  -3  18    0.19    0.36
  -1  -3  19    0.10    0.38
  -1  -3  20   -0.49    0.41
  -2   6  -6   -0.06    0.38
   2   6  -2    0.14    0.44
  -4   5  -6    0.43    0.37
  -1   5  -6    0.04    0.37
  -4   4  -6    0.16    0.36
  -1   4  -6    1.30    0.40
   5   4   8   -0.09    0.61
  -3   3  -6    1.28    0.43
  -2   3  -6    6.35    0.47
   5   3   9   -0.05    0.49
  -7   2  -1    0.71    0.46
  -3   2  -5    0.55    0.37
  -2   2  -5   58.51    0.58
  -6   1  -1    1.98    0.46
   1   1  -1   28.67    1.10
   4   1   8    3.26    0.41
  -4   0  -1    1.88    0.47
   4   0  14    0.41    0.35
   4   0  15    0.34    0.42
   3  -1  14    0.28    0.35
   3  -1  15    1.90    0.36
  -1  -2   7   11.18    0.47
   1  -2  12    0.47    0.39
  -3  -3  17   -0.42    0.40
  -3  -3  18    0.26    0.45
  -2  -3  17   -0.42    0.40
  -2  -3  18    0.21    0.37
  -2  -3  19    0.13    0.38
   0   6  -5    0.00    0.38
   1   6  -4   -0.02    0.44
   3   6   0   -0.42    0.52
  -6   3  -4   -0.52    0.42
  -5   3  -5    5.86    0.39
   0   3  -5    0.79    0.37
  -6   2  -3   -0.17    0.43
  -5   2  -4    1.32    0.35
   0   2  -4    2.63    0.39
   2   2  -1   21.11    0.85
  -1   0  -1   31.36    0.84
   2   0   4   73.21    0.79
   4   0  16    0.87    0.33
   4   0  17    0.23    0.36
   4   0  18    1.77    0.46
   4   0  19    0.30    0.42
  -5  -1   3    3.40    0.83
  -4  -1   2    1.17    0.80
   3  -1  16    3.81    0.39
   3  -1  17    1.61    0.38
   3  -1  18    1.17    0.37
   3  -1  19   -0.62    0.37
   3  -1  20    0.43    0.39
  -6  -2  12   -0.14    0.64
   0  -2   9    3.89    0.39
   1  -2  13    1.18    0.36
  -1   6  -6    0.59    0.36
  -3   5  -7    0.08    0.36
  -2   5  -7    1.93    0.35
   2   5  -3   -0.01    0.44
  -5   4  -6    0.94    0.41
  -3   4  -7    0.45    0.34
  -2   4  -7   14.62    0.41
  -4   3  -6    2.32    0.35
  -1   3  -6    0.25    0.36
   1   3  -4   16.70    0.54
  -4   2  -5    4.66    0.40
  -1   2  -5   40.94    0.61
   5   2  13    0.84    0.45
   5   2  14    0.16    0.44
   4   1   9    4.52    0.47
  -7   0   3    3.38    0.58
  -6   0   1    1.94    0.46
   3   0   8    0.67    0.37
   2  -1   9    2.63    0.37
  -5  -2   9    0.48    0.61
   0  -2  10    2.51    0.43
   1  -2  14    0.57    0.33
   1  -2  15    1.01    0.33
   1  -2  21    0.43    0.43
  -2   6  -7    0.06    0.42
  -4   5  -7    1.22    0.40
   0   5  -6    0.35    0.35
  -4   4  -7    0.25    0.36
   0   4  -6    0.59    0.40
   2   4  -3    2.26    0.47
   3   3   0    2.02    0.78
   5   3  10   -0.39    0.49
  -7   2  -2    0.63    0.44
   1   2  -3   23.13    0.60
   5   2  15    0.25    0.46
  -7   1   0   -0.39    0.45
  -5   1  -3   -0.31    0.45
  -3   1  -4   25.92    0.49
  -2   1  -4    6.75    0.49
   1  -1   6   63.90    0.69
   2  -1  10    1.79    0.36
  -2  -2   7    0.25    0.45
  -1  -2   8   15.62    0.50
   1  -2  16   -0.09    0.35
   1  -2  17    1.26    0.36
   1  -2  18    1.02    0.38
   1  -2  19    0.40    0.37
   1  -2  20   -0.62    0.39
   0   6  -6   -0.17    0.38
   2   6  -3    1.47    0.46
  -1   5  -7    6.83    0.40
   1   5  -5    0.22    0.34
   3   5  -1    3.66    0.50
  -1   4  -7   21.45    0.47
   1   4  -5    1.48    0.45
  -6   3  -5   -0.09    0.42
  -5   3  -6    1.56    0.38
  -3   3  -7    6.03    0.42
   4   3   4    1.04    0.71
  -5   2  -5    0.84    0.40
   4   2   6    0.63    0.50
  -6   1  -2    1.77    0.45
   4   1  10    2.14    0.44
   3   0   9    0.30    0.36
  -3  -2   7    5.41    0.52
   0  -2  11    0.74    0.34
  -1   6  -7    0.17    0.36
   1   6  -5    0.20    0.42
  -3   5  -8   -0.17    0.37
  -2   5  -8    0.02    0.39
  -5   4  -7    0.13    0.38
   3   4  -1    1.60    0.60
   5   4   9    1.79    0.58
  -4   3  -7    2.39    0.42
  -2   3  -7   30.32    0.47
   5   3  11   -0.05    0.45
  -6   2  -4   -0.28    0.40
  -3   2  -6    2.45    0.36
  -2   2  -6   43.58    0.52
  -4   1  -4    0.25    0.38
   4   1  11    4.70    0.42
  -3   0  -2    0.35    0.47
   0  -1   4  200.48    1.23
   2  -1  11    1.34    0.36
  -4  -2   8    4.55    0.66
  -1  -2   9    0.84    0.45
   0  -2  12    1.83    0.35
   3   6  -1   -0.05    0.52
  -4   5  -8   -0.04    0.39
   0   5  -7    0.98    0.40
   4   5   2   -0.17    0.82
  -4   4  -8    0.46    0.38
  -3   4  -8    1.77    0.35
  -2   4  -8    1.94    0.33
   0   3  -6    2.15    0.47
   5   3  12    0.12    0.51
  -4   2  -6    1.31    0.36
   4   1  12   -0.02    0.40
  -5   0  -1    0.11    0.46
   2   0   5   10.33    0.50
   3   0  10    0.77    0.36
   1  -1   7   37.27    0.55
   2  -1  12    4.04    0.40
   2  -1  13    0.36    0.35
   2  -1  20   -0.31    0.43
   2  -1  21   -0.22    0.38
  -5  -2  10    0.54    0.55
  -2  -2   8    0.98    0.47
   0  -2  13    0.01    0.38
   0  -2  14    0.17    0.43
   0  -2  20    0.56    0.42
   0  -2  21    0.74    0.38
   0   6  -7    0.59    0.46
  -1   5  -8    0.41    0.36
   2   5  -4    0.21    0.45
   0   4  -7    7.85    0.47
  -6   3  -6    0.48    0.42
  -5   3  -7    1.34    0.41
  -1   3  -7    6.57    0.38
  -7   2  -3   -0.04    0.38
  -7   1  -1    0.20    0.42
  -1   1  -4  297.59    1.33
   4   1  13    0.96    0.40
  -7   0   2   -0.22    0.52
  -6   0   0   14.19    0.61
  -4   0  -2    1.02    0.45
  -2   0  -2   10.05    0.56
   3   0  11    0.44    0.37
   2  -1  14    4.34    0.35
   2  -1  15    0.61    0.31
   2  -1  16    2.50    0.36
   2  -1  17    0.48    0.34
   2  -1  18    1.09    0.36
   2  -1  19   -0.19    0.35
  -1  -2  10   27.79    0.51
   0  -2  15   -0.42    0.34
   0  -2  16    1.55    0.36
   0  -2  17    2.96    0.38
   0  -2  18    0.76    0.38
   0  -2  19    0.85    0.36
  -1   6  -8    0.45    0.38
   1   6  -6   -0.04    0.42
   2   6  -4    1.68    0.46
  -3   5  -9   -0.17    0.39
   1   5  -6    2.00    0.36
  -5   4  -8    0.29    0.38
  -1   4  -8    1.22    0.35
   5   4  10   -0.28    0.60
  -3   3  -8    5.60    0.35
   1   3  -5    2.61    0.45
   2   3  -3    2.11    0.51
  -6   2  -5    1.14    0.45
  -5   2  -6    0.58    0.42
  -1   2  -6   61.54    0.59
   0   2  -5   75.07    0.69
   3   2   2    1.59    0.74
   4   2   7    0.96    0.45
  -6   1  -3    4.06    0.47
  -5   1  -4    0.20    0.35
  -3   1  -5    0.15    0.43
   0   1  -3   98.62    1.08
   4   1  14    6.11    0.40
   4   1  15    0.79    0.38
   4   1  16    5.54    0.41
   4   1  17    0.24    0.37
   4   1  18    0.32    0.39
   3   0  12    0.19    0.38
   3   0  13    0.16    0.44
   3   0  19    0.55    0.42
   3   0  20   -0.07    0.36
  -3  -2   8    2.92    0.48
  -1  -2  11    2.60    0.44
  -2   5  -9    1.78    0.36
  -4   4  -9    0.14    0.41
  -3   4  -9    4.59    0.35
   1   4  -6    3.49    0.44
   2   4  -4   -0.29    0.43
  -4   3  -8    1.63    0.37
  -2   3  -8    8.50    0.41
  -3   2  -7    1.59    0.35
  -4   1  -5    2.24    0.46
   3   0  14    3.16    0.35
   3   0  15   -0.34    0.35
   3   0  16   -0.33    0.37
   3   0  17    0.31    0.37
   3   0  18    0.22    0.38
  -6  -1   4    1.00    0.96
   1  -1   8   38.04    0.52
  -5  -2  11    0.38    0.47
  -4  -2   9    3.84    0.60
  -2  -2   9    3.95    0.41
  -1  -2  12   11.82    0.48
  -1  -2  20   -0.05    0.42
  -1  -2  21   -0.21    0.37
   0   6  -8    0.19    0.43
  -1   5  -9    1.64    0.42
   0   5  -8    0.58    0.37
   3   5  -2    0.21    0.45
  -2   4  -9    6.60    0.38
  -6   3  -7    0.28    0.43
  -5   3  -8    0.68    0.42
  -7   2  -4    0.43    0.39
  -4   2  -7    0.54    0.39
  -2   2  -7   52.27    0.54
  -7   1  -2    0.77    0.44
  -2   1  -5    1.63    0.38
   2   0   6    1.50    0.38
  -1  -1   3    5.75    0.60
   0  -1   5   29.43    0.59
   1  -1   9    4.60    0.41
   1  -1  22    0.94    0.38
  -3  -2   9   17.81    0.64
  -2  -2  10    0.38    0.44
  -1  -2  13    3.06    0.39
  -1  -2  14    0.12    0.47
  -1  -2  17    0.39    0.41
  -1  -2  18    0.12    0.37
  -1  -2  19    0.38    0.35
  -1   6  -9   -0.27    0.39
   3   6  -2    0.36    0.52
  -3   5 -10   -0.14    0.38
   2   5  -5    1.50    0.42
  -5   4  -9    1.63    0.40
  -1   3  -8   13.93    0.42
   0   3  -7    2.69    0.36
  -5   0  -2    2.92    0.50
  -2  -1   2   18.59    1.11
   1  -1  21   -0.42    0.38
  -5  -2  12   -0.05    0.48
  -4  -2  10    6.09    0.58
  -2  -2  20    0.46    0.42
  -2  -2  21    0.13    0.39
  -1  -2  15    0.28    0.35
  -1  -2  16    0.12    0.35
   1   6  -7    0.04    0.44
   2   6  -5    0.18    0.47
  -2   5 -10    0.11    0.38
   1   5  -7    0.61    0.35
  -4   4 -10    0.87    0.39
  -3   4 -10    0.56    0.34
  -1   4  -9    4.63    0.36
   0   4  -8    4.15    0.39
  -4   3  -9    0.62    0.35
  -3   3  -9   21.72    0.41
  -6   2  -6    1.19    0.39
  -5   2  -7    0.64    0.35
   1   2  -4    0.60    0.43
  -6   1  -4    2.48    0.44
  -5   1  -5    1.53    0.36
  -7   0   1    0.41    0.50
  -6   0  -1   36.77    0.72
   1  -1  10   18.94    0.43
   1  -1  11    0.67    0.40
   1  -1  19    1.00    0.36
   1  -1  20    1.03    0.36
  -5  -2  13    0.46    0.47
  -5  -2  14    0.14    0.49
  -5  -2  15    0.39    0.49
  -5  -2  16    0.54    0.51
  -3  -2  10    3.09    0.50
  -3  -2  20    0.01    0.45
  -2  -2  11   18.04    0.48
  -2  -2  12    1.45    0.43
  -2  -2  18    0.17    0.40
  -2  -2  19    0.25    0.37
  -2   4 -10    6.08    0.38
   3   4  -2    0.68    0.55
   4   4   3    1.37    0.96
  -6   3  -8    0.00    0.37
  -2   3  -9   64.95    0.58
   4   3   5    1.30    0.61
  -7   2  -5    0.33    0.39
  -4   2  -8    1.07    0.44
  -3   2  -8    2.77    0.34
  -1   2  -7   26.37    0.48
   4   2  10    1.04    0.41
  -3   1  -6   25.90    0.53
  -3   0  -3    4.93    0.50
   2   0   7    3.19    0.38
   0  -1   6   10.19    0.54
   1  -1  12    2.61    0.37
   1  -1  13    5.85    0.40
   1  -1  14    1.79    0.46
   1  -1  15    1.40    0.38
   1  -1  16    1.62    0.33
   1  -1  17    0.81    0.32
   1  -1  18   -0.55    0.34
  -4  -2  11    2.21    0.46
  -3  -2  11   29.29    0.59
  -3  -2  19    0.50    0.41
  -2  -2  13    4.24    0.38
  -2  -2  14    0.98    0.42
  -2  -2  15    0.91    0.41
  -2  -2  16    1.07    0.41
  -2  -2  17    0.47    0.36
   0   6  -9    0.21    0.37
  -3   5 -11   -0.70    0.38
  -1   5 -10   -0.23    0.36
   0   5  -9    1.76    0.38
  -5   4 -10    1.12    0.39
   1   4  -7    5.63    0.41
   2   4  -5    0.55    0.43
  -5   3  -9    0.74    0.36
   1   3  -6    5.93    0.47
  -2   2  -8   10.64    0.45
   0   2  -6   31.55    0.52
   4   2  11    0.57    0.44
   4   2  17   -0.05    0.42
  -7   1  -3    4.25    0.48
  -4   1  -6    2.16    0.37
  -1   1  -5   67.97    0.74
   3   1   7    4.34    0.40
  -4   0  -3    2.96    0.45
   2   0  20   -0.85    0.40
   2   0  21   -0.31    0.37
   0  -1  22    0.44    0.40
  -4  -2  12    0.69    0.45
  -4  -2  13    0.57    0.46
  -4  -2  16    0.32    0.45
  -4  -2  17    0.13    0.46
  -4  -2  18   -0.25    0.36
  -3  -2  12    0.59    0.40
  -3  -2  16    1.39    0.44
  -3  -2  17    0.52    0.47
  -3  -2  18    0.64    0.38
   1   6  -8   -0.36    0.46
   3   6  -3    0.50    0.51
  -2   5 -11   -0.08    0.36
   1   5  -8    0.37    0.41
   3   5  -3    0.78    0.51
  -4   4 -11    0.52    0.40
  -3   4 -11    9.87    0.41
  -1   4 -10    2.53    0.34
   0   4  -9    2.45    0.43
  -4   3 -10   -0.08    0.36
  -3   3 -10    1.01    0.31
  -1   3  -9    0.32    0.33
  -6   2  -7    0.45    0.39
  -5   2  -8    0.57    0.36
   4   2  12    2.24    0.38
   4   2  13    1.09    0.44
   4   2  14    1.90    0.45
   4   2  15    0.51    0.37
   4   2  16    0.08    0.36
  -2   1  -6    0.88    0.38
   3   1   8    2.40    0.45
   3   1  19    0.23    0.41
   3   1  20   -0.01    0.38
   2   0   8    0.05    0.35
   2   0  19    0.52    0.35
  -5  -1   2   28.20    1.24
   0  -1  21    0.66    0.38
  -4  -2  14    0.53    0.42
  -4  -2  15    1.10    0.43
  -3  -2  13   11.91    0.43
  -3  -2  14    2.60    0.37
  -3  -2  15   -0.06    0.37
   2   6  -6    0.68    0.44
   2   5  -6    0.55    0.44
  -2   4 -11    1.56    0.34
  -6   3  -9   -0.23    0.39
  -2   3 -10   17.82    0.41
   0   3  -8    4.82    0.36
   2   3  -4    6.83    0.49
  -6   1  -5    7.01    0.41
  -5   1  -6    2.44    0.35
   3   1  18    0.43    0.35
  -7   0   0    0.65    0.52
  -2   0  -3    3.48    0.46
   1   0   3   16.97    0.64
   2   0   9   -0.05    0.36
   2   0  17    0.23    0.35
   2   0  18    0.30    0.34
   0  -1   7    7.93    0.40
   0  -1  20    7.38    0.42
   0   6 -10    0.31    0.37
  -1   5 -11    0.37    0.38
   0   5 -10   -0.88    0.35
  -5   3 -10   -0.38    0.34
   4   3   6    2.56    0.57
  -4   2  -9    1.19    0.35
  -3   2  -9    3.41    0.35
  -7   1  -4    0.82    0.46
   3   1   9    0.33    0.38
   3   1  10    0.77    0.43
   3   1  16    2.89    0.44
   3   1  17    2.67    0.38
  -6   0  -2   20.75    0.58
  -5   0  -3   10.69    0.51
   2   0  10    3.08    0.38
   2   0  11    4.26    0.37
   2   0  12   14.01    0.45
   2   0  13   -0.71    0.42
   2   0  14    6.97    0.45
   2   0  15    4.08    0.36
   2   0  16   -0.43    0.34
  -1  -1   4   12.41    0.62
  -1  -1  22    0.78    0.42
   0  -1  18    1.67    0.38
   0  -1  19    1.99    0.36
  -2   5 -12   -0.33    0.39
  -4   4 -12    0.46    0.37
  -3   4 -12    0.75    0.35
   1   4  -8    0.19    0.34
  -4   3 -11    1.19    0.40
  -3   3 -11   13.79    0.48
  -6   2  -8    3.08    0.38
  -5   2  -9    0.93    0.43
  -2   2  -9   14.78    0.47
  -1   2  -8   25.70    0.45
   2   2  -2   16.70    0.74
  -4   1  -7    2.07    0.37
  -3   1  -7    5.12    0.40
   0   1  -4  192.72    1.20
   2   1   2  115.54    1.34
   3   1  11    0.49    0.37
   3   1  12    0.13    0.41
   3   1  13    0.56    0.42
   3   1  14    0.54    0.35
   3   1  15    1.77    0.35
  -1   0  -2  102.49    1.14
   1   0  22   -0.15    0.39
  -1  -1  21    1.66    0.43
   0  -1   8   11.70    0.44
   0  -1  17   -0.22    0.34
   1   6  -9   -0.25    0.39
   2   6  -7    0.85    0.45
   1   5  -9    0.34    0.43
  -2   4 -12    1.76    0.35
  -1   4 -11    0.67    0.35
   0   4 -10    0.22    0.34
   2   4  -6    0.08    0.41
  -5   3 -11    0.07    0.40
  -1   3 -10    7.12    0.38
   1   3  -7    4.80    0.46
   0   2  -7   36.85    0.58
   1   2  -5   12.99    0.50
  -6   1  -6    0.92    0.44
  -5   1  -7    1.08    0.38
  -4   0  -4   17.14    0.54
  -3   0  -4   48.35    0.70
   1   0  21   -0.07    0.37
  -7  -1   8    0.04    0.81
  -4  -1   1   18.98    1.08
  -1  -1  20    3.70    0.47
   0  -1   9    7.06    0.40
   0  -1  10   12.30    0.42
   0  -1  14   -0.40    0.42
   0  -1  15    0.43    0.33
   0  -1  16    0.64    0.31
   3   6  -4   -0.01    0.46
  -2   5 -13   -0.10    0.44
  -1   5 -12    0.86    0.37
   0   5 -11    1.57    0.39
   2   5  -7   -0.12    0.45
  -2   3 -11    1.99    0.31
   0   3  -9    0.22    0.33
   3   3  -1    1.90    0.84
   4   3   7    1.90    0.48
   4   3  16    0.54    0.45
  -4   2 -10    0.16    0.39
   3   2   3   10.96    0.68
  -7   1  -5    2.88    0.46
  -2   1  -7    0.77    0.35
  -1   1  -6   68.12    0.68
  -7   0  -1   -0.40    0.52
   1   0  20    0.33    0.36
  -1  -1  19    3.33    0.43
   0  -1  11    3.79    0.37
   0  -1  12   10.45    0.39
   0  -1  13    0.75    0.35
   3   5  -4    0.96    0.47
  -4   4 -13    0.89    0.38
  -3   4 -13    3.83    0.39
   3   4  -3    0.13    0.55
  -4   3 -12    1.23    0.41
   4   3   8    1.69    0.48
   4   3  14    0.56    0.44
   4   3  15    0.12    0.42
  -6   2  -9    0.51    0.37
  -5   2 -10    0.41    0.41
  -3   2 -10    6.83    0.37
   2   1  21   -0.13    0.37
  -6   0  -3    7.27    0.53
  -5   0  -4    4.11    0.45
   1   0   4    7.43    0.54
   1   0  19    0.15    0.33
  -2  -1  21    0.37    0.37
  -1  -1   5   20.36    0.59
  -1  -1  18    0.24    0.39
   1   5 -10    0.06    0.44
  -2   4 -13    1.13    0.40
  -1   4 -12    0.23    0.35
   1   4  -9    1.60    0.34
  -5   3 -12    0.23    0.41
  -3   3 -12    6.05    0.37
   2   3  -5    6.29    0.49
   4   3   9   -0.09    0.42
   4   3  12    0.25    0.41
   4   3  13    0.29    0.45
  -2   2 -10    9.86    0.40
  -1   2  -9    3.54    0.35
   3   2  19   -0.28    0.38
  -6   1  -7    2.04    0.43
  -4   1  -8    5.46    0.39
  -3   1  -8    3.60    0.35
   1   1  -2   18.15    0.80
   2   1  20    0.05    0.36
   0   0  22   -0.15    0.39
   1   0  18   -0.12    0.33
  -2  -1  20    0.81    0.39
  -1  -1  17   -0.35    0.39
   2   6  -8   -0.08    0.45
  -1   5 -13    0.63    0.36
   0   5 -12    0.16    0.41
   0   4 -11    1.55    0.34
  -2   3 -12    3.05    0.32
  -1   3 -11    0.53    0.34
   3   2  18    0.74    0.36
  -5   1  -8    0.60    0.35
   2   1  19   -0.34    0.37
   1   0  17    0.15    0.32
  -2  -1  19   -0.32    0.40
  -1  -1  16    2.88    0.36
   2   5  -8    1.29    0.41
  -3   4 -14   -0.42    0.37
   2   4  -7    0.46    0.37
  -4   3 -13    0.03    0.37
   0   3 -10    0.71    0.35
   1   3  -8    0.28    0.36
  -6   2 -10    0.19    0.37
  -5   2 -11    0.94    0.40
  -4   2 -11    0.79    0.38
  -3   2 -11    9.42    0.37
   0   2  -8   23.64    0.45
   3   2  17    0.50    0.36
  -7   1  -6   -0.21    0.38
  -2   1  -8    7.36    0.44
   2   1  18    1.08    0.34
  -7   0  -2    0.17    0.54
  -4   0  -5    0.34    0.43
  -2   0  -4   76.16    0.75
   0   0  21    1.92    0.37
   1   0   5   23.71    0.57
   1   0  15    1.04    0.38
   1   0  16    1.33    0.31
  -3  -1  20   -0.06    0.36
  -2  -1  18    1.12    0.41
  -1  -1   6   30.68    0.56
  -1  -1  15    2.42    0.38
   3   5  -5    0.44    0.47
  -2   4 -14    0.23    0.36
  -1   4 -13    0.15    0.34
   1   4 -10    0.55    0.38
   4   4   4    0.92    0.68
  -5   3 -13    0.49    0.36
  -3   3 -13    1.75    0.35
   1   2  -6   18.38    0.54
   3   2   4    1.74    0.51
   3   2  15    0.60    0.40
   3   2  16    1.28    0.37
  -4   1  -9    2.92    0.44
  -1   1  -7   43.31    0.56
   0   1  -5   26.79    0.56
   1   1  22   -0.08    0.38
   2   1  17   -0.33    0.36
  -6   0  -4   -0.32    0.47
  -5   0  -5    3.17    0.43
  -3   0  -5   12.88    0.46
   0   0  20    1.41    0.38
   1   0  14    2.00    0.38
  -3  -1  19    0.37    0.41
  -2  -1  17    1.80    0.43
  -1  -1   7    0.26    0.42
  -1  -1  13    9.66    0.38
  -1  -1  14    1.80    0.34
  -1   5 -14    0.09    0.36
   0   5 -13    0.26    0.41
   1   5 -11    0.18    0.35
   0   4 -12   -0.04    0.33
  -2   3 -13    4.55    0.36
  -1   3 -12    2.27    0.32
  -6   2 -11    1.23    0.41
  -2   2 -11    6.92    0.39
  -1   2 -10    0.58    0.33
   3   2  14   11.30    0.45
  -6   1  -8    0.34    0.37
  -5   1  -9   -0.08    0.39
  -3   1  -9   -0.60    0.32
   1   1  21    0.55    0.43
   2   1  16    3.86    0.36
  -1   0  22    1.11    0.39
   0   0  19    0.50    0.34
   1   0   6    2.63    0.42
   1   0  12   23.67    0.54
   1   0  13    7.21    0.39
  -5  -1   1   13.53    1.06
  -4  -1  19    0.34    0.41
  -3  -1  18    0.20    0.39
  -2  -1   3    1.01    0.60
  -1  -1   8   18.50    0.50
  -1  -1   9    7.44    0.47
  -1  -1  10    3.43    0.43
  -1  -1  11    0.53    0.37
  -1  -1  12    1.46    0.34
   2   5  -9    1.27    0.42
  -3   4 -15    0.50    0.38
   3   4  -4    1.19    0.51
   4   4  13    1.27    0.50
  -4   3 -14   -0.44    0.38
  -3   3 -14   -0.20    0.40
   0   3 -11    0.57    0.43
   2   3  -6    5.33    0.49
  -5   2 -12    1.63    0.39
  -4   2 -12    2.02    0.37
  -3   2 -12   15.82    0.40
   3   2   5    0.65    0.50
   3   2  13    5.92    0.45
  -7   1  -7    2.85    0.42
   2   1  14    4.95    0.46
   2   1  15    0.13    0.34
  -1   0  21    1.89    0.44
   0   0  18    0.21    0.37
   1   0   7    5.11    0.38
   1   0   8    6.25    0.41
   1   0   9    1.00    0.36
   1   0  10   12.87    0.43
   1   0  11    3.30    0.36
  -4  -1  18   -0.53    0.41
  -2  -1  16    6.86    0.38
  -2   4 -15    0.28    0.37
  -1   4 -14    0.69    0.35
   2   4  -8    1.20    0.39
   4   4   5    0.15    0.56
   1   3  -9    0.14    0.35
   3   3  18    0.32    0.43
   0   2  -9    4.65    0.38
   2   2  -3    7.01    0.61
   2   2  20    0.06    0.35
   3   2  11    8.22    0.46
   3   2  12   11.89    0.43
  -2   1  -9    3.01    0.43
   1   1  20    1.41    0.36
   2   1  13   -0.48    0.42
  -7   0  -3    2.40    0.56
  -4   0  -6    8.41    0.49
  -1   0  -3   18.77    0.64
  -5  -1  17    0.30    0.43
  -4  -1  17    0.57    0.42
  -3  -1  17    0.27    0.36
  -2  -1  15   25.75    0.47
   0   5 -14    0.82    0.42
   1   5 -12   -0.06    0.38
   0   4 -13   -0.16    0.37
   1   4 -11    5.46    0.36
  -2   3 -14    1.02    0.34
  -1   3 -13    0.32    0.33
  -2   2 -12    6.53    0.37
  -1   2 -11   -0.17    0.35
   2   2  19   -0.40    0.41
   3   2   8    2.80    0.46
   3   2   9    2.84    0.46
   3   2  10    6.01    0.46
  -6   1  -9    0.13    0.36
  -5   1 -10    1.57    0.39
  -4   1 -10    3.41    0.36
  -3   1 -10    0.32    0.38
   1   1  19    0.87    0.35
   2   1  12    4.40    0.36
  -6   0  -5    4.11    0.47
  -5   0  -6    0.05    0.37
  -3   0  -6   70.11    0.74
  -2   0  -5   10.59    0.43
  -2   0  22   -0.34    0.37
  -1   0  20   -0.49    0.35
   0   0  17    0.19    0.30
  -6  -1  14    0.02    0.47
  -5  -1  16    0.64    0.46
  -3  -1  16    4.23    0.35
  -2  -1  13   34.22    0.55
  -2  -1  14    5.20    0.37
   3   5  -6    0.95    0.43
   4   4   6    0.09    0.47
   4   4   7    0.16    0.46
   4   4   8    0.02    0.49
   4   4   9    0.25    0.46
   4   4  10   -0.11    0.42
  -4   3 -15    0.36    0.38
  -3   3 -15   -0.19    0.35
   3   3  17    0.66    0.36
  -5   2 -13    1.18    0.35
  -4   2 -13    1.95    0.35
  -3   2 -13    9.07    0.38
   1   2  -7   14.11    0.45
  -1   1  -8   38.34    0.51
   0   1  -6   10.86    0.43
   0   1  22    2.03    0.39
   1   1  18    0.77    0.38
   2   1  10    1.39    0.43
   2   1  11    2.13    0.34
  -2   0  21    0.47    0.39
  -1   0  19    0.57    0.39
   0   0  16    0.55    0.31
  -6  -1  13    0.04    0.48
  -5  -1  15    0.11    0.41
  -4  -1  16    0.84    0.37
  -3  -1  15    3.10    0.40
  -2  -1  12    4.65    0.44
   2   5 -10    1.60    0.42
  -2   4 -16    0.08    0.36
  -1   4 -15    0.23    0.35
   2   4  -9    0.76    0.39
   0   3 -12    3.40    0.39
   1   3 -10   -0.80    0.43
   3   3  16    0.45    0.35
   2   2  18    0.84    0.36
  -6   1 -10    1.42    0.41
   0   1  21    0.17    0.36
   2   1   6    1.06    0.36
   2   1   7    0.72    0.44
   2   1   8    5.96    0.41
   2   1   9    2.58    0.36
  -7   0  -4    0.07    0.53
   0   0  15    2.13    0.34
  -6  -1  12   -0.10    0.53
  -4  -1   0    6.43    0.82
  -4  -1  15    1.13    0.44
  -3  -1  14    2.76    0.43
  -2  -1   4    3.43    0.46
  -2  -1  11   18.41    0.51
   0   5 -15   -0.16    0.39
   1   5 -13    0.38    0.36
   0   4 -14   -0.48    0.36
   1   4 -12    1.59    0.33
   3   4  -5    1.89    0.52
  -4   3 -16   -0.50    0.41
  -2   3 -15    0.38    0.33
  -1   3 -14    0.28    0.35
   2   3  -7   -0.63    0.44
   3   3  15    0.56    0.40
  -4   2 -14    2.59    0.42
  -2   2 -13    3.15    0.32
   0   2 -10    2.13    0.36
   2   2  17    0.80    0.35
  -5   1 -11    0.30    0.42
  -4   1 -11    4.71    0.37
  -3   1 -11    0.39    0.41
  -2   1 -10    2.80    0.34
   1   1  -3    5.90    0.59
   1   1  17    0.88    0.34
  -6   0  -6    0.33    0.43
  -5   0  -7    0.13    0.37
  -4   0  -7    6.64    0.40
  -3   0  21    0.06    0.44
  -2   0  20    0.34    0.38
  -1   0  18   28.58    0.49
   0   0  14    3.93    0.38
  -6  -1   4    0.89    1.00
  -6  -1  11    0.36    0.53
  -5  -1  14   -0.09    0.42
  -4  -1  14    0.37    0.42
  -3  -1  13    2.47    0.42
  -2  -1   5    9.55    0.57
  -2  -1  10    8.90    0.40
   3   5  -7    0.15    0.46
  -2   4 -17   -0.06    0.42
  -1   4 -16    0.48    0.42
  -3   3 -16    0.10    0.36
   3   3  -2   -0.07    0.72
   3   3  14    0.86    0.42
  -5   2 -14    0.42    0.34
  -3   2 -14   13.17    0.39
  -1   2 -12    0.81    0.37
   1   2  21    0.21    0.38
  -1   1  -9    6.66    0.40
   0   1  20    8.81    0.41
   1   1  16    3.33    0.34
  -3   0  -7    1.68    0.36
  -2   0  -6    1.72    0.43
  -1   0  17   28.13    0.47
   0   0  13    0.56    0.35
  -6  -1  10   -0.06    0.51
  -5  -1  13    0.82    0.44
  -2  -1   6   40.15    0.71
  -2  -1   7    6.73    0.50
  -2  -1   8   38.95    0.64
  -2  -1   9    3.45    0.37
   2   5 -11    5.18    0.46
   0   3 -13    9.50    0.39
   1   2  -8   20.67    0.54
   1   2  20    0.03    0.36
   2   2  16    0.61    0.34
  -6   1 -11   -0.36    0.41
  -1   1  22   -0.44    0.37
   0   1  -7    9.48    0.42
   0   1  19    2.58    0.40
  -7   0  -5    0.26    0.51
  -3   0  20    0.13    0.36
  -2   0  19    0.52    0.34
  -1   0  -4    8.61    0.53
   0   0  12    3.11    0.39
  -6  -1   9    0.09    0.52
  -5  -1   0   15.04    1.01
  -5  -1  12    1.17    0.45
  -4  -1  13    0.81    0.36
  -3  -1  12    2.43    0.36
   1   5 -14    0.45    0.35
   4   5   2   -0.07    0.76
   0   4 -15   -0.12    0.34
   1   4 -13    3.94    0.37
   2   4 -10    4.67    0.42
  -2   3 -16    0.30    0.35
  -1   3 -15   -0.03    0.34
   1   3 -11    1.35    0.36
   2   3  19    0.10    0.38
   3   3  13    2.66    0.38
  -5   2 -15   -0.02    0.43
  -4   2 -15    0.27    0.37
  -2   2 -14    3.85    0.32
   0   2 -11    1.37    0.33
   2   2  -4    5.50    0.54
   2   2  15    0.26    0.33
  -5   1 -12    0.78    0.37
  -4   1 -12   -0.11    0.34
  -3   1 -12    0.68    0.43
  -2   1 -11    2.46    0.35
  -1   1  21    0.96    0.38
   1   1  15    0.93    0.32
  -6   0  -7   -0.05    0.42
  -5   0  -8    0.52    0.38
  -4   0  -8   16.01    0.50
  -2   0  18    7.11    0.44
  -1   0  16   22.99    0.43
  -6  -1   8    0.18    0.55
  -4  -1  12    2.08    0.40
  -3  -1  11    1.50    0.35
   4   5   8    0.56    0.51
  -1   4 -17    1.92    0.38
   3   4  -6    0.58    0.48
  -3   3 -17    0.13    0.37
   2   3  -8    1.68    0.44
   2   3  18    0.33    0.41
   3   3  12    7.58    0.45
  -3   2 -15    0.65    0.35
  -1   2 -13    0.53    0.34
   1   2  19    1.13    0.37
   2   2  14    3.67    0.41
   0   1  18    2.77    0.35
   1   1  14    3.26    0.35
  -3   0  -8   -0.26    0.41
  -3   0  19   -0.19    0.35
  -1   0  15   -0.14    0.39
   0   0  11   33.30    0.48
  -6  -1   5    2.16    0.84
  -6  -1   7    0.84    0.59
  -5  -1  11    0.34    0.41
  -4  -1  11    4.90    0.38
  -3  -1  10    0.67    0.42
   2   5 -12    0.50    0.45
   3   5  -8    0.09    0.48
   4   5   7    1.31    0.53
   0   4 -16    0.19    0.39
   3   4  15    0.40    0.44
  -2   3 -17    0.18    0.36
   0   3 -14    4.14    0.35
   3   3  11   17.98    0.50
  -6   1 -12    0.19    0.39
  -4   1 -13   -0.43    0.40
  -1   1 -10   19.70    0.42
  -1   1  20    5.70    0.38
   1   1  13    9.64    0.42
  -7   0  -6    0.29    0.47
  -4   0  19    0.21    0.35
  -2   0  -7    3.34    0.38
  -2   0  17    9.69    0.45
   0   0  10    0.46    0.36
  -6  -1   6    0.22    0.65
  -5  -1  10    0.07    0.46
  -3  -1   9    3.98    0.46
   4   5   3    0.50    0.65
   4   5   4    0.18    0.60
   4   5   5   -0.01    0.57
   4   5   6    0.24    0.51
   1   4 -14   -0.55    0.37
   2   4 -11    3.09    0.42
  -3   3 -18    0.23    0.39
  -1   3 -16    0.39    0.33
   1   3 -12    0.17    0.34
   2   3  17    0.40    0.35
  -4   2 -16    0.55    0.36
  -3   2 -16    1.32    0.40
  -2   2 -15    0.54    0.33
  -1   2 -14   -0.06    0.36
   0   2 -12    3.25    0.33
   0   2  21    0.02    0.37
   1   2  -9    0.77    0.35
   1   2  18    0.47    0.34
   2   2  13    2.13    0.36
  -5   1 -13    1.88    0.38
  -3   1 -13    1.59    0.34
  -2   1 -12    5.23    0.39
  -2   1  21    0.62    0.40
   0   1  -8   13.91    0.43
   0   1  17    0.09    0.30
   1   1  -4   14.04    0.61
  -6   0  -8    0.42    0.41
  -5   0  -9    0.15    0.39
  -4   0  -9    1.77    0.37
  -3   0  18    0.25    0.34
  -1   0  -5   29.12    0.64
  -1   0  14    3.11    0.35
   0   0   9    1.19    0.35
  -4  -1  -1    4.51    0.69
  -4  -1  10    0.31    0.41
  -3  -1   8    0.50    0.43
  -1   4 -18    0.12    0.37
   3   4  14   -0.14    0.37
   0   3 -15    9.29    0.46
   1   3  20    0.78    0.41
   2   3  -9    0.19    0.43
   3   3  10    0.66    0.33
   0   2  20    0.62    0.43
   1   2  17    1.30    0.39
   2   2  12    6.47    0.47
  -6   1 -13   -0.55    0.48
  -1   1  19    5.83    0.38
   1   1  12    3.24    0.34
  -7   0  -7    0.20    0.48
  -4   0  18    0.35    0.37
  -3   0  -9    0.66    0.41
  -3   0  17   -0.31    0.41
  -2   0  16    0.65    0.33
   0   0   8   18.70    0.48
  -5  -1  -1    2.77    0.77
  -5  -1   9    2.35    0.44
  -4  -1   9    0.33    0.43
  -3  -1   7    8.19    0.49
   2   5 -13    3.44    0.39
   3   5  -9    0.13    0.48
   0   4 -17    0.59    0.35
   3   4  -7    1.03    0.49
   3   4  13    2.79    0.47
  -2   3 -18   -0.66    0.36
  -1   3 -17    0.12    0.34
   1   3 -13   -0.04    0.40
   2   3  16   -0.42    0.33
   3   3  -3    0.38    0.66
   3   3   9   25.31    0.52
  -4   2 -17   -0.03    0.36
  -2   2 -16    0.66    0.33
   2   2  -5    0.86    0.42
  -5   1 -14    0.83    0.36
  -4   1 -14    8.25    0.39
  -2   1  20    0.20    0.41
  -1   1 -11    1.15    0.32
   0   1  16    0.25    0.30
   1   1  11    1.25    0.41
  -6   0  -9    0.89    0.40
  -2   0  -8    0.53    0.41
  -1   0  13    4.33    0.36
   0   0   7    5.47    0.42
  -5  -1   8    0.01    0.51
  -3  -1   6   12.41    0.62
   1   4 -15   -0.17    0.36
   2   4 -12    1.24    0.43
   1   3  19    0.24    0.38
  -3   2 -17    0.35    0.36
  -1   2 -15    0.98    0.31
   0   2 -13    0.40    0.36
   0   2  19   -0.46    0.40
   1   2 -10   35.43    0.51
   1   2  16    0.02    0.35
   2   2  11    5.64    0.39
  -3   1 -14    0.66    0.33
  -2   1 -13    0.29    0.33
  -1   1  18    0.86    0.34
   0   1  -9    8.15    0.40
   0   1  15    0.19    0.38
  -5   0 -10    0.40    0.38
  -5   0  17   -0.46    0.39
  -4   0 -10    6.34    0.38
  -4   0  17    0.78    0.36
  -3   0  16    0.71    0.40
  -2   0  15   12.72    0.42
  -1   0  12   -0.15    0.33
   0   0   6    1.62    0.43
  -4  -1   8    0.10    0.42
  -3  -1   5    7.09    0.55
   2   5 -14    0.64    0.43
   3   4  12    0.33    0.45
  -2   3 -19    0.42    0.38
   0   3 -16    0.72    0.34
   2   3 -10    3.28    0.43
   2   3  15    0.38    0.36
  -1   2  21   -0.15    0.38
  -5   1 -15   -0.29    0.42
  -4   1 -15    1.01    0.41
  -2   1  19    1.05    0.41
  -1   1 -12    2.82    0.36
   1   1  -5   24.27    0.59
   1   1  10   18.84    0.45
  -7   0  -8    0.04    0.47
  -3   0 -10    1.89    0.34
  -2   0  14    4.72    0.44
  -1   0  -6    2.86    0.41
   0   0   5    7.94    0.63
  -5  -1  -2    1.91    0.64
  -5  -1   7    8.61    0.60
  -4  -1  -2    1.52    0.57
  -4  -1   7    1.41    0.49
  -3  -1   3   15.71    0.80
  -3  -1   4   17.80    0.70
   3   5 -10    0.15    0.46
   0   4 -18    0.27    0.38
   1   4 -16    0.67    0.40
   2   4 -13    5.16    0.45
   2   4  17    0.14    0.36
   3   4  -8    6.68    0.52
  -1   3 -18    0.28    0.37
   1   3 -14    1.64    0.33
   1   3  18   -0.01    0.39
  -3   2 -18    0.30    0.37
  -2   2 -17    1.13    0.34
   0   2  18    1.29    0.40
   1   2  15    1.93    0.33
   2   2  10   10.92    0.41
  -3   1 -15    1.93    0.36
  -3   1  20    0.65    0.35
  -2   1 -14    4.72    0.34
  -1   1  17    0.54    0.32
   0   1  14   -0.19    0.36
  -6   0 -10   -0.03    0.43
  -5   0 -11    0.92    0.40
  -5   0  16    0.33    0.36
  -4   0 -11    0.67    0.39
  -4   0  16   -0.04    0.36
  -3   0  15    0.94    0.39
  -2   0  -9    0.09    0.35
  -1   0  11    4.65    0.37
  -5  -1   6    3.37    0.59
   3   4  11    9.80    0.47
   0   3 -17    0.54    0.39
   2   3  14    0.37    0.35
  -1   2 -16   -0.31    0.33
  -1   2  20   -0.12    0.36
   0   2 -14    2.19    0.35
   1   2 -11    2.99    0.34
   2   2  -6    1.98    0.45
   2   2   9   19.22    0.53
  -2   1  18    0.62    0.40
   0   1 -10   18.75    0.43
   1   1   9    7.91    0.38
  -2   0  13    0.04    0.38
   0   0   4  251.81    1.43
  -4  -1   6    0.74    0.50
   2   4  16    0.22    0.36
  -1   3 -19    0.65    0.37
   0   3  20   -0.04    0.39
   1   3  17    0.58    0.40
   2   3 -11    1.80    0.39
   2   3  13    5.51    0.41
   3   3   5    0.39    0.47
  -3   2 -19    0.47    0.43
  -2   2 -18    1.44    0.35
  -2   2  21    0.27    0.36
   1   2  14    0.12    0.35
  -5   1 -16    0.75    0.38
  -4   1 -16    9.58    0.40
  -3   1  19    0.25    0.35
  -1   1 -13   11.29    0.40
  -1   1  16    5.12    0.33
   0   1  13    1.17    0.35
  -6   0 -11   -0.09    0.47
  -5   0  15   -0.27    0.40
  -4   0 -12    0.16    0.39
  -4   0  15    0.81    0.37
  -3   0 -11    0.57    0.37
  -1   0  -7    6.69    0.40
  -1   0  10    3.33    0.35
   0   0   3   21.01    0.59
  -4  -1  -3    1.53    0.53
   3   5 -11    0.68    0.47
   1   4 -17    0.94    0.37
   2   4 -14    1.10    0.45
   3   4  10    0.33    0.42
   1   3 -15    1.74    0.35
  -1   2 -17    2.24    0.34
  -1   2  19    0.59    0.36
   0   2 -15    0.05    0.32
   0   2  17    4.25    0.36
   1   2 -12   13.50    0.40
   2   2   8   12.72    0.50
  -4   1  19    1.10    0.38
  -3   1 -16    4.74    0.38
  -2   1 -15    0.29    0.30
   0   1 -11    3.90    0.42
   1   1  -6   31.71    0.55
   1   1   8   43.95    0.57
  -6   0  14   -0.16    0.44
  -5   0 -12    0.02    0.37
  -3   0  14    1.40    0.35
  -2   0 -10    3.80    0.37
   2   4  15    0.38    0.36
   0   3 -18    0.85    0.37
   0   3  19   -0.25    0.37
  -2   2  20    0.56    0.36
   1   2  13    0.41    0.37
  -4   1 -17    0.43    0.34
  -3   1  18    0.28    0.35
  -2   1  17    3.31    0.36
  -1   1 -14    4.26    0.38
  -1   1  15    2.49    0.34
  -3   0 -12   -0.07    0.34
  -2   0  12    1.40    0.33
  -1   0  -8    8.07    0.41
  -1   0   9    3.45    0.39
  -6   0   3    0.78    0.39
  -6   0   4    0.16    0.37
  -6   0   5    0.05    0.37
  -5   0  -3    3.92    0.43
  -5   0  10    0.33    0.40
  -3   0  13    2.82    0.48
  -2   0  -5   12.22    0.53
  -7  -1  -5    0.68    0.41
  -6  -1  -8   -0.72    0.34
  -5  -1 -10    1.06    0.36
  -4  -1 -11    3.46    0.44
  -3  -1  19    0.40    0.56
   1  -1  14    3.15    0.54
   2  -1   9    3.47    0.47
  -5  -2 -14   -0.30    0.38
  -2  -2 -15    0.15    0.52
   0  -2  21    0.31    0.72
   1  -2  19    0.81    0.53
   2  -2  -9    4.45    0.47
   2  -2  16   -0.04    0.44
   3  -2  -4    3.06    0.40
   3  -2  11    7.63    0.43
   1  -3 -15    1.27    0.53
   4  -3  -4    0.66    0.37
   4  -3  10   -0.26    0.35
   4  -4  -8    0.43    0.36
   5  -4   1    0.01    0.42
   5  -4   2    0.77    0.36
   5  -4   3    0.27    0.38
   5  -4   4   -0.82    0.37
   5  -4   5    0.49    0.37
   5  -4   6   -0.16    0.40
  -5   0  -2    2.18    0.37
  -5   0  -1    0.10    0.37
  -5   0   9    3.76    0.45
  -4   0  -4   16.47    0.44
  -4   0  12    2.03    0.38
  -3   0  -5   13.52    0.46
  -7  -1  -4   -0.25    0.38
  -6  -1  -7    0.70    0.43
   1  -1  -7    0.51    0.51
   2  -1  -2   20.83    0.54
  -3  -2 -15    0.27    0.43
   1  -2 -12   12.28    0.68
   3  -2  -5    0.16    0.36
   3  -2  12   10.68    0.53
   2  -3 -13    1.24    0.45
   3  -3 -10    4.95    0.44
   3  -3  17   -0.20    0.44
   4  -3  -5    2.40    0.44
   4  -3  11   -0.03    0.36
   4  -4  -9    2.08    0.44
   5  -4  -1   -0.08    0.37
   5  -4   0    0.16    0.36
   5  -4   7    0.12    0.38
   5  -4   8   -0.10    0.43
  -5   0   0   10.97    0.46
  -5   0   8    1.02    0.36
  -4   0  -3    2.34    0.37
  -4   0  11    3.05    0.46
  -3   0  12    0.36    0.49
  -2   0  12    1.04    0.52
  -7  -1  -3    1.03    0.41
  -7  -1  -2    0.07    0.42
  -5  -1  -9    0.38    0.35
  -5  -1  17    1.24    0.49
  -3  -1 -11    0.67    0.47
  -2  -1 -11    2.35    0.47
   2  -1  10    2.38    0.49
   4  -3  12    0.28    0.36
   3  -4 -13    1.24    0.46
   5  -4  -3    1.05    0.40
   5  -4  -2    1.10    0.38
   5  -4   9    0.03    0.38
  -5   0   1    0.50    0.36
  -5   0   2    0.01    0.36
  -5   0   3    0.03    0.35
  -5   0   4    1.58    0.36
  -5   0   5    0.44    0.38
  -5   0   6   -0.25    0.38
  -5   0   7    1.65    0.39
  -4   0  10   -0.57    0.43
  -3   0  -4   51.14    0.61
  -2   0  -4   84.01    0.89
  -7  -1  -1   -0.44    0.37
  -6  -1  -6    0.27    0.38
  -6  -1  14    1.11    0.48
  -4  -1 -10    2.74    0.38
  -4  -1  18    0.44    0.46
   0  -1  17    0.00    0.89
   2  -1  -3    0.94    0.38
  -6  -2 -11    0.60    0.42
  -5  -2 -13    0.75    0.40
  -4  -2 -14    2.28    0.45
   2  -2  17    0.38    0.46
   3  -2  -6    0.00    0.36
   3  -2  13    6.60    0.45
  -1  -3 -17    0.36    0.83
   4  -3  -6   13.83    0.49
   4  -3  13    0.32    0.38
   4  -4 -10    1.01    0.46
   5  -4  -4    3.35    0.39
   5  -4  10    0.09    0.38
  -4   0  -2    0.71    0.35
  -3   0  11    0.39    0.44
  -7  -1   0    0.63    0.36
  -7  -1   1    0.00    0.37
  -7  -1   2   -0.43    0.43
  -7  -1   6    0.83    0.42
  -7  -1   7    0.16    0.37
  -7  -1   8    1.00    0.37
  -6  -1  -5    3.35    0.39
  -5  -1  -8   -0.09    0.35
  -5  -1  16    0.80    0.48
   2  -1  11    2.28    0.48
   2  -2 -10    0.24    0.45
   3  -3 -11    5.46    0.47
   3  -3  18    0.34    0.46
   4  -3  -7   10.80    0.51
   4  -3  14    0.28    0.41
   2  -4 -16    1.80    0.55
   5  -4  -5    1.82    0.36
  -4   0  -1    1.14    0.35
  -4   0   9    0.11    0.36
  -3   0  -3    5.53    0.41
  -2   0  11   -0.17    0.51
  -7  -1   3    0.53    0.38
  -7  -1   4    0.65    0.38
  -7  -1   5    0.14    0.39
  -6  -1  -4    0.10    0.43
  -6  -1  13   -0.13    0.36
  -3  -1  18    0.02    0.48
   1  -1  15    1.25    0.57
   2  -1  -4    4.15    0.39
  -6  -2 -10    0.00    0.43
  -5  -2 -12    0.17    0.45
   1  -2  20    0.20    0.57
   3  -2  -7    6.68    0.49
   3  -2  14    7.41    0.51
   4  -2   1   19.91    0.47
   4  -2   2    0.47    0.38
   4  -2   3    3.18    0.40
   4  -2   4    1.30    0.38
   4  -2   5    2.68    0.40
   4  -2   6    1.43    0.38
   4  -2   7    0.45    0.46
  -3  -3 -17    0.14    0.51
   5  -3   2    0.33    0.38
   5  -3   3    3.91    0.39
   5  -3   4    1.64    0.36
   5  -3   5    3.78    0.41
   3  -4 -14   -0.17    0.45
   4  -4 -11   -0.18    0.41
   5  -4  -6    0.14    0.39
  -4   0   0    1.10    0.34
  -4   0   1    3.97    0.37
  -4   0   7    1.89    0.42
  -4   0   8    0.65    0.36
  -3   0  -2   -0.42    0.38
  -3   0  10    0.48    0.46
  -2   0  -3    3.80    0.44
  -1   0  10    3.20    0.60
  -6  -1  -3    1.57    0.45
  -6  -1  12    0.37    0.38
  -5  -1  -7    0.33    0.35
  -5  -1  15    0.07    0.49
  -4  -1  -9    3.39    0.39
  -4  -1  17    0.67    0.45
  -3  -1 -10    0.41    0.38
  -1  -1 -10   20.68    0.80
   2  -1  12    4.44    0.48
   2  -2  18    0.79    0.49
   4  -2  -1    2.29    0.40
   4  -2   0   -0.16    0.39
   4  -2   8    0.66    0.39
   2  -3 -14    0.67    0.42
   4  -3  -8   20.71    0.54
   4  -3  15   -0.49    0.44
   5  -3   0    0.44    0.35
   5  -3   1   -0.14    0.34
   5  -3   6    0.65    0.37
   5  -3   7    0.86    0.34
  -4   0   2    6.27    0.40
  -4   0   3    6.28    0.38
  -4   0   4    8.35    0.41
  -4   0   5    5.94    0.37
  -4   0   6    0.59    0.33
  -6  -1  -2    0.59    0.36
  -6  -1  11    0.49    0.38
  -5  -1  -6    1.52    0.42
  -2  -1  18    0.81    0.60
  -7  -2  -5   -0.56    0.43
  -6  -2  -9   -0.34    0.37
  -4  -2 -13    1.44    0.37
   3  -2  15   -0.25    0.45
   4  -2  -2    9.83    0.41
   4  -2   9    0.24    0.36
  -2  -3 -17    0.24    0.58
   3  -3 -12    7.79    0.49
   5  -3  -2    0.70    0.35
   5  -3  -1    0.18    0.35
   5  -3   8   -0.05    0.36
   5  -3   9   -0.10    0.36
   1  -4 -18   -0.04    0.65
   5  -4  -7    0.32    0.37
  -3   0  -1    5.41    0.39
  -3   0   9   -0.23    0.37
  -2   0  10    0.59    0.47
  -1   0  -2  145.78    1.31
  -6  -1  -1    0.04    0.37
  -6  -1   9    0.19    0.40
  -6  -1  10   -0.75    0.36
  -5  -1  14    0.19    0.42
  -4  -1  -8    4.63    0.42
   2  -1  -5   10.46    0.44
   3  -1   2   51.51    0.60
   3  -1   3    2.25    0.37
   3  -1   4   29.04    0.50
   3  -1   5    0.17    0.36
   3  -1   6   24.55    0.57
  -7  -2  -4   -0.11    0.44
  -5  -2 -11    0.52    0.41
  -2  -2 -14    3.40    0.59
  -1  -2 -14    0.06    0.72
   2  -2 -11   19.00    0.69
   3  -2  -8    2.56    0.39
   4  -2  -3    3.85    0.35
   4  -2  10    1.45    0.35
   4  -3  -9    5.32    0.41
   4  -3  16   -0.16    0.40
   5  -3  -3   -0.10    0.35
   5  -3  10   -0.22    0.33
   4  -4 -12    0.77    0.38
   5  -4  -8    0.13    0.37
   6  -4   1   -0.64    0.39
   6  -4   2   -0.68    0.38
  -3   0   0    2.25    0.36
  -3   0   8    4.33    0.39
  -2   0  -2   11.05    0.49
  -6  -1   0    0.35    0.35
  -6  -1   1    0.54    0.37
  -6  -1   2    2.58    0.44
  -6  -1   7    0.44    0.40
  -6  -1   8    0.34    0.36
  -5  -1  -5    1.19    0.35
  -4  -1  16    1.31    0.42
  -3  -1  -9   -0.14    0.46
   1  -1  -8   21.96    0.73
   2  -1  13   -0.07    0.47
   3  -1   0   14.36    0.50
   3  -1   1    0.98    0.38
   3  -1   7    4.99    0.39
  -7  -2  -3   -0.19    0.39
  -6  -2  -8    0.43    0.38
   3  -2  16    0.56    0.41
   4  -2  -4   48.03    0.57
   4  -2  11    1.50    0.35
   1  -3 -16    0.34    0.60
   5  -3  -4    1.22    0.36
   5  -3  11    0.27    0.37
   3  -4 -15    0.43    0.47
   6  -4  -1    0.22    0.38
   6  -4   0   -0.57    0.39
  -3   0   1    0.43    0.37
  -3   0   2    0.61    0.45
  -3   0   7   12.65    0.44
  -2   0   9   23.06    0.60
  -6  -1   3    0.06    0.34
  -6  -1   4    0.95    0.37
  -6  -1   5    1.61    0.38
  -6  -1   6    0.62    0.35
  -5  -1  -4    0.09    0.35
  -5  -1  13    0.44    0.40
  -4  -1  -7    1.53    0.43
  -3  -1  17   -0.01    0.45
   1  -1  16    2.50    0.66
   3  -1  -1   33.23    0.57
   3  -1   8    2.53    0.38
  -7  -2  -2    0.36    0.39
  -6  -2  -7    0.15    0.41
  -5  -2 -10    0.76    0.47
  -4  -2 -12    1.97    0.46
   1  -2 -13    4.10    0.66
   2  -2  19   -0.39    0.52
   3  -2  -9   18.53    0.59
   4  -2  12    1.29    0.43
   4  -3 -10    1.14    0.42
   5  -3  -5    1.07    0.37
   5  -3  12    0.39    0.38
   2  -4 -17    0.62    0.54
   4  -4 -13   -0.24    0.43
   5  -4  -9    0.83    0.38
   6  -4  -3   -1.09    0.38
   6  -4  -2    0.37    0.39
  -3   0   3   35.20    0.56
  -3   0   4   75.08    0.71
  -3   0   5   28.25    0.51
  -3   0   6   12.81    0.46
  -2   0  -1    6.29    0.49
  -1   0   9    3.45    0.59
  -5  -1  -3    0.65    0.38
  -5  -1  12    1.50    0.37
  -4  -1  15    0.63    0.46
   2  -1  -6   45.57    0.63
   3  -1   9    0.15    0.37
  -7  -2  -1    0.51    0.37
  -7  -2   0    0.52    0.39
   4  -2  -5   -0.25    0.37
  -3  -3 -16    0.42    0.47
   2  -3 -15    0.17    0.45
   3  -3 -13    1.13    0.44
   5  -3  -6   -0.30    0.37
   5  -3  13    0.32    0.35
   5  -4 -10   -0.56    0.43
  -2   0   0   33.36    0.68
  -2   0   8    5.28    0.49
  -1   0  -1   44.51    0.78
  -5  -1  11    0.34    0.38
  -4  -1  -6    1.65    0.42
  -3  -1  -8    3.44    0.45
   2  -1  14    3.24    0.49
   3  -1  -2   15.80    0.45
   3  -1  10    0.30    0.45
  -7  -2   1    0.56    0.38
  -7  -2   2   -0.27    0.39
  -7  -2   3    0.11    0.37
  -7  -2   4    0.21    0.44
  -7  -2   5    0.07    0.45
  -7  -2   6   -0.59    0.38
  -6  -2  -6   -0.15    0.38
  -5  -2  -9    0.90    0.42
   1  -2  21    0.41    0.67
   3  -2  17    0.03    0.44
   4  -2  -6   18.37    0.49
   4  -2  13    1.10    0.38
  -5  -3 -13    0.66    0.39
  -5  -1  -2    1.54    0.35
  -5  -1  -1    1.93    0.40
  -5  -1  10   -0.12    0.35
  -4  -1  14    0.96    0.45
  -3  -1  16    4.36    0.50
  -2  -1  17    2.95    0.56
   3  -1  -3   15.84    0.43
  -6  -2  -5    0.19    0.36
  -4  -2 -11    1.06    0.41
   2  -2 -12    1.56    0.49
   4  -2  14    1.43    0.48
   5  -2   1    0.94    0.32
   5  -2   2    0.08    0.30
   5  -2   3   -0.03    0.31
   5  -2   4    0.48    0.34
   5  -2   5   -0.60    0.34
   5  -2   6    0.08    0.35
   4  -3 -11    1.56    0.41
   5  -3  -7    1.22    0.38
   6  -3   1   -0.10    0.42
   6  -3   2    0.11    0.35
   6  -3   3    0.16    0.37
   6  -3   4   -0.38    0.37
   6  -3   5    0.08    0.38
   6  -3   6    0.03    0.42
   3  -4 -16    0.97    0.49
   4  -4 -14    0.23    0.48
  -2   0   1    6.04    0.49
  -2   0   7    3.07    0.40
  -5  -1   0   13.80    0.45
  -5  -1   9    1.61    0.35
  -4  -1  -5    2.32    0.35
   3  -1  11    0.09    0.36
  -6  -2  -4    0.00    0.35
  -5  -2  -8    0.95    0.40
   3  -2 -10    2.56    0.39
   4  -2  -7    8.93    0.43
   5  -2  -1    1.26    0.33
   5  -2   0    0.50    0.31
   5  -2   7    0.06    0.37
   5  -2   8    0.57    0.37
  -6  -3  -9    0.17    0.40
  -5  -3 -12    0.53    0.47
  -4  -3 -14    0.49    0.46
   5  -3  -8    1.06    0.34
   6  -3  -1   -0.45    0.36
   6  -3   0   -0.27    0.37
   6  -3   7    0.44    0.37
   6  -3   8   -0.02    0.36
  -2   0   2   33.57    0.64
  -2   0   3   57.73    0.73
  -2   0   4   38.67    0.68
  -2   0   5   10.39    0.53
  -2   0   6  115.23    0.90
  -1   0   8    3.94    0.56
  -5  -1   1    6.58    0.45
  -5  -1   2   23.30    0.52
  -5  -1   3    1.94    0.40
  -5  -1   6    1.37    0.41
  -5  -1   7    7.41    0.38
  -5  -1   8    0.12    0.34
  -4  -1  13    1.04    0.41
  -3  -1  -7    5.42    0.46
   2  -1  -7    7.00    0.43
   2  -1  15   -0.11    0.52
   3  -1  -4   17.34    0.45
   3  -1  12   -0.02    0.43
  -6  -2  -3    0.36    0.35
  -6  -2  12    0.16    0.37
   2  -2  20    0.11    0.55
   3  -2  18    0.08    0.43
   4  -2  15    0.50    0.45
   5  -2  -2    2.21    0.36
   5  -2   9   -0.48    0.37
   3  -3 -14   -0.10    0.43
   4  -3 -12   -0.26    0.41
   6  -3  -3    0.00    0.41
   6  -3  -2   -0.22    0.37
   6  -3   9    0.08    0.37
  -1   0   0    4.70    0.46
   1   0   4    9.63    0.68
  -5  -1   4    6.22    0.39
  -5  -1   5    2.67    0.37
  -4  -1  -4    0.79    0.33
  -3  -1  15    3.62    0.50
   4  -1   3    0.96    0.34
   4  -1   4    0.81    0.36
   4  -1   5    1.50    0.41
  -6  -2  -2    0.26    0.35
  -6  -2  11   -0.17    0.38
  -5  -2  -7   -0.13    0.34
  -5  -2  16    0.24    0.38
  -4  -2 -10    1.48    0.32
  -2  -2 -13    2.32    0.48
   4  -2  -8    4.81    0.40
   5  -2  -3    0.72    0.34
   5  -2  10    0.39    0.36
  -6  -3  -8    0.22    0.38
  -3  -3 -15   -0.08    0.42
  -2  -3 -16    0.02    0.47
   5  -3  -9   -0.16    0.36
   6  -3  -4   -0.13    0.41
   1   0   3   23.69    0.71
   1   0   5   27.48    0.77
  -4  -1  -3    1.27    0.34
  -4  -1  12    1.47    0.34
  -1  -1  -9    7.31    0.55
   1  -1  17    0.65    0.63
   3  -1  -5    6.77    0.39
   3  -1  13    1.35    0.39
   4  -1   1    4.66    0.37
   4  -1   2    1.95    0.34
   4  -1   6    2.00    0.33
   4  -1   7    1.31    0.37
  -6  -2  -1   -0.09    0.34
  -6  -2   0    1.19    0.39
  -6  -2   9   -0.13    0.40
  -6  -2  10    1.22    0.36
  -5  -2  15    0.17    0.44
  -4  -2  18    0.54    0.49
  -3  -2  20    0.56    0.53
  -2  -2  21    0.46    0.64
   3  -2 -11   36.41    0.63
   4  -2  16    0.06    0.47
   5  -2  -4    8.86    0.41
   5  -2  11    0.40    0.35
  -6  -3  -7    0.38    0.42
  -5  -3 -11    0.29    0.36
   6  -3  -5    0.24    0.40
  -1   0   1  111.58    1.14
  -1   0   7   14.63    0.69
   1   0   2  147.04    1.28
   1   0   6    2.83    0.49
  -4  -1  11    2.72    0.42
  -3  -1  -6   26.10    0.49
  -1  -1  17    0.24    0.65
   1  -1  -9    9.66    0.63
   4  -1  -1   18.52    0.44
   4  -1   0    5.54    0.39
   4  -1   8    3.97    0.40
  -6  -2   1   -0.34    0.34
  -6  -2   2    0.32    0.34
  -6  -2   3    1.43    0.40
  -6  -2   6    0.38    0.41
  -6  -2   7    0.66    0.38
  -6  -2   8    1.02    0.35
  -5  -2  -6    0.01    0.35
  -4  -2  -9    0.75    0.39
   3  -2  19   -0.11    0.51
   4  -2  -9    3.56    0.45
   5  -2  -5    0.61    0.33
   5  -2  12    0.67    0.36
  -4  -3 -13    1.49    0.39
   2  -3 -16    0.43    0.51
   4  -3 -13   -0.23    0.41
   5  -3 -10    0.49    0.39
   6  -3  -6    0.04    0.38
   1   0   7    5.97    0.57
  -4  -1  -2    1.09    0.33
  -4  -1  10    0.53    0.43
  -3  -1  14    3.70    0.43
  -2  -1  16    6.06    0.58
   2  -1  -8   44.00    0.71
   2  -1  16    2.67    0.52
   3  -1  -6   12.72    0.49
   4  -1  -2    1.10    0.34
   4  -1   9    2.03    0.40
  -6  -2   4   -0.13    0.36
  -6  -2   5    2.04    0.39
  -5  -2  -5   -0.23    0.34
  -5  -2  14    0.45    0.41
  -3  -2 -11    8.55    0.47
   2  -2 -13    5.83    0.56
   4  -2  17    0.05    0.43
   5  -2  -6    3.04    0.43
   5  -2  13    1.37    0.37
  -6  -3  -6    0.19    0.35
  -5  -3 -10   -0.10    0.37
   3  -3 -15    0.61    0.48
  -1   0   2  161.21    1.36
  -1   0   6    7.18    0.62
   1   0   1   44.85    0.78
  -4  -1  -1    3.93    0.36
  -4  -1   9   -0.44    0.43
  -3  -1  -5   -0.04    0.43
   3  -1  14    0.49    0.40
   4  -1  -3    2.78    0.42
   4  -1  10    2.06    0.37
  -5  -2  13    1.83    0.44
  -4  -2  17    0.15    0.46
   5  -2  14    0.34    0.41
   6  -2   1    0.14    0.34
   6  -2   2    0.28    0.34
   6  -2   3    0.01    0.35
   6  -2   4   -0.06    0.36
   6  -2   5    0.53    0.35
   6  -2   6    0.15    0.37
  -6  -3  -5    0.03    0.36
   5  -3 -11    0.21    0.37
   6  -3  -7    0.14    0.36
  -1   0   3   27.13    0.83
  -1   0   5   15.98    0.70
   1   0   8    6.94    0.59
  -4  -1   0    5.89    0.39
  -4  -1   1   18.41    0.45
  -4  -1   8    0.44    0.36
  -3  -1  13    3.08    0.41
   4  -1  11    3.31    0.37
  -5  -2  -4    1.19    0.34
  -4  -2  -8    0.79    0.35
  -3  -2  19   -0.48    0.52
   3  -2 -12    0.33    0.39
   4  -2 -10    7.72    0.38
   5  -2  -7   -0.10    0.34
   6  -2  -1    0.29    0.34
   6  -2   0    1.10    0.35
   6  -2   7    0.12    0.36
   6  -2   8    2.05    0.37
  -6  -3  -4    0.23    0.37
  -5  -3  -9   -0.36    0.37
  -4  -3 -12    0.31    0.36
   6  -3  -8   -0.21    0.38
  -1   0   4   24.18    0.73
   1   0   0    4.71    0.53
  -4  -1   2    1.15    0.35
  -4  -1   3    4.02    0.34
  -4  -1   4    1.35    0.34
  -4  -1   5    0.69    0.34
  -4  -1   6    0.50    0.33
  -4  -1   7    0.62    0.35
  -2  -1  -7    0.68    0.39
   3  -1  -7    8.91    0.41
   3  -1  15    0.95    0.48
   4  -1  -4    0.99    0.34
   4  -1  12   -0.21    0.39
  -5  -2  -3   -0.19    0.34
  -5  -2  12   -0.21    0.36
  -4  -2  16    0.71    0.42
  -2  -2 -12    6.56    0.50
  -1  -2 -13    1.08    0.58
   5  -2  15   -0.43    0.45
   6  -2  -2    0.06    0.35
   6  -2   9   -0.18    0.35
   6  -2  10   -0.16    0.39
  -6  -3  -3    0.53    0.37
  -1  -3 -16    0.10    0.57
   4  -3 -14    0.47    0.41
   5  -3 -12   -0.01    0.44
   2   0   3    4.17    0.43
   2   0   4   81.45    0.83
   2   0   5   12.03    0.45
   2   0   6    1.25    0.41
  -3  -1  -4   29.48    0.50
  -2  -1  15   24.15    0.72
   2  -1  17    0.01    0.49
   4  -1  -5    1.12    0.39
   5  -1   1    1.84    0.39
   5  -1   2    0.39    0.34
   5  -1   3   -0.28    0.32
   5  -1   4    0.33    0.31
   5  -1   5    0.63    0.34
   5  -1   6    1.84    0.35
  -5  -2  -2   -0.25    0.32
  -5  -2  10    0.38    0.42
  -5  -2  11    0.14    0.35
  -4  -2  -7    0.42    0.37
  -3  -2 -10    6.57    0.41
   1  -2 -14    1.21    0.83
   4  -2 -11    1.79    0.40
   5  -2  -8   -0.07    0.36
   6  -2  -4    0.92    0.41
   6  -2  -3    0.61    0.35
   6  -2  11   -0.06    0.43
  -6  -3  -2    0.23    0.37
  -5  -3  -8   -0.27    0.33
  -4  -3 -11    0.27    0.41
  -2  -3 -15   -0.14    0.45
   6  -3  -9   -0.55    0.37
   1   0   9    0.96    0.55
   2   0   2   11.73    0.49
   2   0   7    2.98    0.45
  -3  -1  -3    2.10    0.43
  -3  -1  12    2.07    0.37
   2  -1  -9    3.56    0.47
   4  -1  13   -0.15    0.39
   5  -1   0   12.75    0.45
   5  -1   7    0.18    0.33
   5  -1   8    0.53    0.34
  -5  -2  -1    1.09    0.32
  -5  -2   0    0.16    0.31
  -5  -2   9    0.08    0.40
  -4  -2  15    2.06    0.43
  -3  -2  18    1.16    0.48
  -2  -2  20    0.07    0.53
   6  -2  -5    2.69    0.44
  -6  -3  -1    0.42    0.35
  -6  -3   0    0.07    0.35
  -6  -3   9    0.32    0.39
  -6  -3  10   -0.55    0.39
  -5  -3  -7    1.51    0.41
   3  -3 -16   -0.06    0.47
   6  -3 -10    0.47    0.41
  -2  -4 -17    0.34    0.53
  -1  -4 -18    0.15    0.63
   2   0   1    6.68    0.48
  -3  -1  11    0.80    0.44
  -1  -1  -8   43.38    0.86
   3  -1  -8    0.24    0.37
   3  -1  16    1.97    0.47
   4  -1  -6    0.81    0.33
   5  -1  -2   24.69    0.50
   5  -1  -1    9.47    0.43
   5  -1   9    0.17    0.34
  -5  -2   1    2.28    0.32
  -5  -2   2    3.12    0.33
  -5  -2   7    0.42    0.40
  -5  -2   8    0.17    0.34
  -4  -2  -6    0.60    0.36
  -1  -2  21    0.19    0.64
   3  -2 -13   15.70    0.53
   5  -2  -9    0.19    0.34
  -6  -3   1    0.55    0.37
  -6  -3   2    0.23    0.36
  -6  -3   3    0.23    0.38
  -6  -3   4    0.18    0.42
  -6  -3   5    0.53    0.43
  -6  -3   6   -0.24    0.39
  -6  -3   7    0.86    0.37
  -6  -3   8    0.32    0.36
  -3  -3 -13    3.25    0.44
   4  -3 -15    0.61    0.41
   5  -3 -13    0.87    0.37
  -5  -4 -10    0.31    0.44
  -4  -4 -13    0.94    0.44
   1   0  -1  114.21    1.13
   2   0   0   34.93    0.64
   2   0   8    0.04    0.37
  -3  -1  -2   51.27    0.59
  -2  -1  -6    1.44    0.37
   1  -1  18   -0.04    0.79
   4  -1  14    2.90    0.43
   5  -1  -3    1.77    0.34
   5  -1  10    0.96    0.36
  -5  -2   3    0.97    0.31
  -5  -2   4   12.31    0.40
  -5  -2   5    0.48    0.34
  -5  -2   6    5.43    0.38
  -4  -2  14   -0.38    0.44
  -3  -2  -9    3.45    0.38
   2  -2 -14    2.42    0.58
   4  -2 -12    0.10    0.41
   6  -2  -6   -0.41    0.36
   7  -2   1   -0.33    0.43
   7  -2   2    0.44    0.38
   7  -2   3   -0.57    0.37
   7  -2   4   -0.47    0.37
   7  -2   5    1.06    0.38
  -5  -3  -6    0.20    0.37
  -4  -3 -10    1.20    0.40
   2   0  -1    6.82    0.56
   2   0   9    0.05    0.44
   3   0   3    5.13    0.47
   3   0   4   49.52    0.60
   3   0   5   12.88    0.52
  -3  -1  -1    1.19    0.43
  -3  -1  10    0.55    0.37
  -2  -1  14    4.62    0.53
  -1  -1  16    4.26    0.69
   4  -1  -7    0.33    0.36
   5  -1  -4    7.21    0.47
   5  -1  11    0.17    0.35
  -4  -2  -5    3.83    0.40
   5  -2 -10    0.51    0.37
   6  -2  -7    0.77    0.34
   7  -2  -1    0.73    0.37
   7  -2   0    0.00    0.38
  -5  -3  -5    3.72    0.42
  -5  -3  14   -0.03    0.47
   2  -3 -17    0.18    0.56
   5  -3 -14   -0.24    0.43
  -5  -4  -9    1.80    0.44
   1   0  10   14.82    0.69
   3   0   1    4.47    0.39
   3   0   2    0.08    0.37
   3   0   6   68.61    0.71
   3   0   7    2.00    0.44
  -3  -1   9    3.99    0.47
   0  -1  -9    7.56    1.04
   3  -1  -9    4.68    0.39
   3  -1  17    1.03    0.52
   4  -1  15    0.37    0.36
   5  -1  12   -0.21    0.37
  -4  -2  -4    3.14    0.35
  -4  -2  13   -0.08    0.36
  -3  -2  17    0.67    0.43
   6  -2  -8    0.23    0.40
   7  -2  -2   -0.07    0.39
  -5  -3  13   -0.10    0.43
  -4  -3  -9    0.78    0.40
  -3  -3 -12    8.18    0.50
  -2  -3 -14    0.76    0.46
  -6  -4  -2   -0.93    0.38
  -4  -4 -12   -0.74    0.46
   2   0  -2   36.72    0.68
   2   0  10    2.47    0.47
   3   0   0    2.08    0.36
   3   0   8    0.39    0.42
  -3  -1   0   15.94    0.46
  -3  -1   8    0.87    0.40
  -2  -1  -5    1.38    0.38
   1  -1 -10    4.82    0.64
   2  -1 -10   11.35    0.51
   2  -1  18    0.36    0.53
   4  -1  -8    0.57    0.43
   5  -1  -5    3.49    0.37
   5  -1  13    1.60    0.47
   6  -1   0    0.00    0.37
   6  -1   1    0.80    0.35
   6  -1   2    0.96    0.34
   6  -1   3    1.82    0.36
   6  -1   4    1.45    0.35
   6  -1   5    3.28    0.40
   6  -1   6    0.68    0.36
   6  -1   7    0.68    0.35
  -4  -2  12    0.81    0.38
  -3  -2  -8    2.88    0.38
  -2  -2  19    0.73    0.50
   5  -2 -11    0.44    0.37
   7  -2  -4   -0.58    0.43
   7  -2  -3    0.84    0.38
  -5  -3  -4    2.66    0.38
   4  -3 -16   -0.40    0.46
  -6  -4  -1   -0.21    0.37
  -6  -4   0    0.28    0.40
  -5  -4  -8    0.39    0.36
   1   0  -2  163.81    1.34
   3   0  -1    0.72    0.35
   3   0   9    0.73    0.45
  -3  -1   1   32.98    0.53
  -3  -1   2   17.64    0.46
  -3  -1   6   12.25    0.47
  -3  -1   7    7.88    0.39
  -2  -1  13   32.41    0.68
   4  -1  16    4.47    0.51
   5  -1  -6    2.70    0.37
   6  -1  -1    1.91    0.35
   6  -1   8    0.15    0.35
   6  -1   9   -0.98    0.37
  -4  -2  -3    2.79    0.35
  -4  -2  11    2.54    0.41
  -3  -2  16    1.33    0.41
   3  -2 -14    2.00    0.46
   4  -2 -13    0.07    0.40
   6  -2  -9   -0.48    0.35
   7  -2  -5    0.87    0.37
  -5  -3  -3    6.12    0.40
  -5  -3  12   -0.06    0.37
  -4  -3  -8    2.65    0.40
   3  -3 -17    0.34    0.54
  -6  -4   1   -0.11    0.38
  -6  -4   2    0.19    0.38
  -6  -4   3    0.32    0.41
  -5  -4  -7    0.53    0.38
  -3  -4 -14   -0.24    0.46
  -2  -4 -16    0.80    0.51
   4   0   3    2.61    0.35
   4   0   4   15.40    0.43
   4   0   5   -0.83    0.38
  -3  -1   3   15.44    0.43
  -3  -1   4   17.53    0.43
  -3  -1   5    7.62    0.37
   3  -1 -10    0.80    0.44
   5  -1  14    0.02    0.35
   6  -1  -3   -0.04    0.38
   6  -1  -2    3.59    0.37
   6  -1  10    0.57    0.36
  -4  -2  -2   -0.19    0.34
  -3  -2  -7    1.35    0.44
  -1  -2 -12    0.51    0.53
   5  -2 -12   -0.04    0.42
   7  -2  -6   -0.32    0.42
  -5  -3  -2    0.15    0.34
  -5  -3  -1    0.93    0.39
  -5  -3  10   -0.52    0.37
  -5  -3  11   -0.26    0.35
  -4  -4 -11    1.77    0.36
   2   0  -3   65.90    0.70
   2   0  11    4.51    0.48
   3   0  -2    0.58    0.37
   3   0  10    0.63    0.37
   4   0   1    1.90    0.33
   4   0   2    0.35    0.34
   4   0   6    7.33    0.37
   4   0   7    5.87    0.39
  -2  -1  -4    8.25    0.41
   3  -1  18    0.43    0.47
   4  -1  -9    0.56    0.33
   4  -1  17   -0.28    0.42
   5  -1  -7    4.50    0.39
   5  -1  15    0.41    0.42
   6  -1  -4    0.78    0.40
   6  -1  11   -0.27    0.37
  -4  -2  -1   22.13    0.48
  -4  -2   9    3.88    0.43
  -4  -2  10    8.21    0.38
   6  -2 -10   -0.22    0.37
  -5  -3   0    0.67    0.34
  -5  -3   9    0.82    0.35
  -4  -3  -7    2.79    0.41
  -4  -3  16   -0.43    0.42
  -3  -3 -11   17.61    0.47
  -1  -3 -15    0.65    0.49
  -5  -4  -6    0.10    0.34
   1   0  11    2.93    0.61
   3   0  -3   35.98    0.55
   3   0  11    0.58    0.45
   4   0  -1    3.67    0.40
   4   0   0    0.98    0.34
   4   0   8   12.82    0.47
  -2  -1  12    4.28    0.47
   0  -1  17    0.23    0.83
   5  -1  -8   -0.06    0.38
   6  -1  -5    2.64    0.41
   6  -1  12    0.24    0.38
  -4  -2   0    0.81    0.37
  -4  -2   1    2.25    0.37
  -4  -2   8    6.78    0.40
  -3  -2  15    0.54    0.42
  -2  -2  18    0.15    0.46
   4  -2 -14   -0.21    0.45
  -5  -3   1    0.31    0.33
  -5  -3   2    0.52    0.33
  -5  -3   3    0.56    0.35
  -5  -3   4    1.74    0.39
  -5  -3   5    2.43    0.41
  -5  -3   6    0.28    0.35
  -5  -3   7    2.63    0.34
  -5  -3   8    1.05    0.34
  -5  -4  -5    1.00    0.36
  -4  -4 -10    0.28    0.36
  -1  -4 -17    2.09    0.55
   2   0  12   12.43    0.60
   4   0  -2    7.06    0.43
   4   0   9    1.68    0.37
   4  -1 -10    0.68    0.41
   5  -1  16    0.02    0.43
   6  -1  13   -0.15    0.43
   7  -1   0    0.17    0.42
   7  -1   1    0.66    0.36
   7  -1   2   -0.51    0.37
   7  -1   3    1.43    0.40
   7  -1   4   -0.56    0.38
   7  -1   5    2.94    0.41
   7  -1   6   -0.02    0.38
   7  -1   7    1.25    0.41
  -4  -2   2   11.25    0.42
  -4  -2   3    4.73    0.39
  -4  -2   4   53.14    0.58
  -4  -2   5   -0.49    0.34
  -4  -2   6   22.76    0.45
  -4  -2   7   11.03    0.43
  -3  -2  -6    1.66    0.35
  -1  -2  20    0.11    0.53
   5  -2 -13    0.59    0.46
   6  -2 -11    0.21    0.35
  -4  -3  -6    2.67    0.36
  -4  -3  15    0.20    0.36
  -5  -4  -4    0.35    0.35
  -3  -4 -13    4.94    0.44
   1   0  -3   28.70    0.73
   2   0  -4   43.59    0.61
   3   0  -4   78.59    0.71
   3   0  12    0.08    0.44
   4   0  10    4.27    0.38
   5   0   2    2.41    0.35
   5   0   3    9.55    0.39
   5   0   4    3.18    0.36
   5   0   5    1.93    0.36
   5   0   6    0.14    0.38
  -2  -1  -3    0.55    0.35
  -1  -1  15    2.58    0.60
   2  -1 -11   21.53    0.65
   2  -1  19    0.18    0.58
   3  -1 -11    1.08    0.46
   4  -1  18    0.41    0.47
   5  -1  -9    1.26    0.41
   6  -1  -6    0.19    0.34
   7  -1  -1   -0.47    0.36
  -3  -2  14    2.67    0.44
   2  -2 -15    0.35    0.56
   3  -2 -15    0.47    0.43
  -4  -3  14   -0.29    0.41
  -3  -3 -10    1.66    0.33
   0  -3 -16    1.08    0.67
  -5  -4  -3   -0.07    0.35
  -4  -4  -9    1.00    0.41
  -2  -4 -15    0.56    0.42
   0  -4 -18    0.40    0.65
   4   0  -3    6.28    0.37
   4   0  11    1.14    0.39
   5   0   0   12.37    0.43
   5   0   1    0.14    0.34
   5   0   7    0.73    0.32
   5   0   8   -0.97    0.38
  -2  -1  11   17.08    0.53
   3  -1  19   -0.44    0.56
   6  -1  -7    1.59    0.35
   7  -1  -3    0.24    0.36
   7  -1  -2    0.22    0.38
  -3  -2  -5    0.45    0.35
  -2  -2  -9   18.50    0.53
   6  -2 -12    0.01    0.37
  -4  -3  -5    1.76    0.35
  -3  -3  18    1.45    0.46
  -5  -4  -2    0.21    0.35
   3   0  -5   30.41    0.50
   3   0  13    0.44    0.43
   4   0  -4    9.91    0.39
   4   0  12   -0.18    0.37
   5   0  -1   -0.38    0.35
   5   0   9   -0.08    0.33
  -2  -1  -2  131.01    0.98
   4  -1 -11    3.30    0.43
   6  -1  -8    0.14    0.40
   7  -1  -4   -0.08    0.37
  -3  -2  13   14.44    0.46
  -2  -2  17    0.09    0.43
   4  -2 -15    1.25    0.49
   5  -2 -14    0.19    0.45
  -4  -3  -4    1.84    0.35
  -4  -3  13   -0.04    0.36
  -3  -3  -9   25.21    0.54
  -5  -4  -1    0.96    0.37
  -5  -4   0    1.27    0.39
  -5  -4   9    1.03    0.41
  -5  -4  10   -0.19    0.38
  -4  -4  -8    0.02    0.35
  -3  -4 -12    1.08    0.37
   2   0  -5   12.09    0.45
   2   0  13   -0.29    0.47
   5   0  -2    0.69    0.33
   5   0  10   -0.41    0.33
  -2  -1  10   10.08    0.49
   5  -1 -10    0.33    0.32
   7  -1  -5    0.70    0.38
  -3  -2  -4    2.47    0.38
   0  -2 -13    0.74    0.67
  -4  -3  -3    5.08    0.37
  -4  -3  12   -0.19    0.36
   3  -3 -18    1.47    0.57
  -5  -4   1    0.47    0.36
  -5  -4   2    2.15    0.37
  -5  -4   3    0.82    0.38
  -5  -4   6    2.19    0.41
  -5  -4   7    0.46    0.36
  -5  -4   8    0.27    0.37
   1   0  12   31.94    1.00
   4   0  -5    5.94    0.36
   4   0  13    0.72    0.42
   5   0  -3    0.81    0.33
   5   0  11    0.42    0.34
   6   0   1   28.49    0.53
   6   0   2   14.70    0.45
   6   0   3    4.43    0.39
   6   0   4   -0.24    0.34
   6   0   5    2.44    0.38
   6   0   6    0.58    0.34
   6   0   7    0.05    0.39
  -2  -1  -1   19.34    0.51
  -2  -1   9    2.94    0.43
   6  -1  -9    0.62    0.38
   7  -1  -6    0.03    0.36
  -3  -2  -3   12.06    0.47
  -3  -2  12    0.18    0.33
  -2  -2  -8   13.36    0.50
  -1  -2 -11    0.03    0.50
   0  -2  21    0.21    0.68
  -4  -3  -2    0.28    0.37
  -4  -3  11    3.01    0.38
  -3  -3  17    1.09    0.44
  -5  -4   4    4.69    0.38
  -5  -4   5    1.76    0.38
  -4  -4  -7    0.10    0.35
  -3  -4 -11   10.91    0.48
   1   0  -4   27.02    0.79
   3   0  -6   13.20    0.45
   3   0  14    2.58    0.43
   4   0  -6    0.28    0.38
   5   0  -4    1.71    0.33
   5   0  12   -0.45    0.44
   6   0  -1    1.20    0.35
   6   0   0    8.50    0.42
   6   0   8   -0.22    0.36
  -1  -1  14    3.31    0.54
   3  -1 -12    3.05    0.45
   4  -1 -12    1.65    0.39
   5  -1 -11   -0.17    0.33
   7  -1  -7    0.46    0.35
  -3  -2  11   37.24    0.57
  -1  -2  19    0.58    0.52
   5  -2 -15    0.72    0.42
  -4  -3  -1   -0.50    0.31
  -4  -3  10    1.47    0.36
  -3  -3  -8    6.23    0.38
  -1  -3 -14    0.59    0.47
  -4  -4  -6   -0.50    0.41
  -1  -4 -16    1.12    0.51
  -5  -5  -1    1.07    0.38
   2   0  -6  132.65    0.99
   4   0  14    0.04    0.44
   5   0  -5    0.12    0.38
   6   0  -2   -0.08    0.35
   6   0   9    0.11    0.33
   6   0  10    0.27    0.41
  -2  -1   0    8.27    0.43
  -2  -1   8   39.54    0.58
   3  -1  20    0.32    0.58
   6  -1 -10    0.28    0.35
   7  -1  -8    0.13    0.44
  -3  -2  -2    2.33    0.35
  -3  -2  10    2.00    0.44
  -2  -2  16    1.76    0.44
  -4  -3   0    0.82    0.32
  -4  -3   8   22.66    0.52
  -4  -3   9    6.41    0.37
  -3  -3  16   -0.13    0.41
  -4  -4  14    0.33    0.41
  -5  -5   0    1.47    0.38
  -5  -5   1    0.73    0.40
  -5  -5   2    6.02    0.45
  -4  -5  -8    1.12    0.37
   2   0  14    6.62    0.58
   3   0  -7   14.34    0.50
   4   0  -7    1.86    0.40
   5   0  -6   -0.15    0.41
   5   0  13    0.22    0.37
   6   0  -3    1.72    0.36
   6   0  11    0.38    0.45
  -2  -1   1   45.32    0.62
  -2  -1   7    6.94    0.41
   2  -1 -12    5.07    0.52
   5  -1 -12    0.31    0.42
  -3  -2  -1   22.24    0.44
  -3  -2   9   22.76    0.51
   3  -2 -16    0.89    0.48
   4  -2 -16   -0.03    0.47
  -4  -3   1    0.43    0.31
  -4  -3   2    0.43    0.33
  -4  -3   3    0.94    0.31
  -4  -3   4    1.70    0.31
  -4  -3   5    4.62    0.34
  -4  -3   6   24.22    0.43
  -4  -3   7   21.77    0.43
  -3  -3  -7    7.75    0.40
  -2  -3 -11    2.56    0.40
  -4  -4  -5    1.17    0.34
  -4  -4  13   -0.50    0.42
  -3  -4 -10    0.62    0.42
  -4  -5  -7    2.41    0.44
   3   0  15   -0.25    0.42
   4   0  15   -0.19    0.41
   5   0  14   -0.35    0.44
   6   0  -4    0.21    0.35
   6   0  12   -0.22    0.41
   7   0   0    0.90    0.37
   7   0   1   -0.34    0.35
   7   0   2   -0.19    0.36
   7   0   3    2.05    0.39
   7   0   4    0.31    0.36
   7   0   5   -0.45    0.37
   7   0   6    0.78    0.36
   7   0   7    0.77    0.35
  -2  -1   2   20.96    0.52
  -2  -1   3    1.32    0.38
  -2  -1   4    3.97    0.39
  -2  -1   5   10.27    0.43
  -2  -1   6   43.61    0.61
   6  -1 -11    0.15    0.37
  -3  -2   0    8.29    0.37
  -3  -2   8    3.41    0.41
  -2  -2  -7   61.20    0.64
  -3  -3  15    1.23    0.42
  -2  -3  19    0.47    0.48
  -4  -4  -4    1.13    0.35
  -4  -4  12    0.41    0.40
  -2  -4 -13    2.81    0.43
   5   0  -7    2.42    0.36
   6   0  -5    0.38    0.34
   7   0  -2   -0.89    0.37
   7   0  -1   -0.15    0.35
   7   0   8    0.09    0.37
   3  -1 -13    2.74    0.49
   4  -1 -13    1.59    0.43
  -3  -2   1    2.44    0.34
  -3  -2   2    0.56    0.33
  -3  -2   6    0.96    0.38
  -3  -2   7    7.28    0.36
  -2  -2  15    0.49    0.41
   5  -2 -16   -0.03    0.49
  -3  -3  -6    1.86    0.36
  -4  -4  -3    2.45    0.35
  -4  -4  11    0.17    0.40
  -3  -4  -9    5.22    0.44
  -4  -5  -6   -0.32    0.37
  -3  -5 -11   -0.18    0.39
   2   0  -7    3.23    0.43
   3   0  -8    5.20    0.45
   4   0  -8    0.15    0.34
   5   0  15   -0.05    0.46
   6   0  -6   -0.62    0.34
   6   0  13    0.01    0.39
   7   0  -3    1.27    0.38
  -1  -1  13   12.74    0.58
   5  -1 -13    0.56    0.43
   6  -1 -12    0.03    0.40
  -3  -2   3    6.66    0.37
  -3  -2   4    3.94    0.35
  -3  -2   5    0.01    0.34
  -3  -3  14    0.72    0.36
  -4  -4  -2    2.35    0.36
  -4  -4  10    1.03    0.35
  -4  -5  -5    0.09    0.35
   3   0  16    0.22    0.44
   4   0  16    0.69    0.45
   5   0  -8    0.66    0.34
   6   0  -7    0.00    0.35
   7   0  -4    0.39    0.35
  -2  -2  -6   49.88    0.63
  -2  -2  14    2.70    0.39
  -1  -2 -10    0.21    0.42
  -1  -2  18    0.69    0.48
  -3  -3  -5    0.63    0.36
  -3  -3  13    0.53    0.41
  -2  -3 -10   21.55    0.47
  -2  -3  18   -0.03    0.43
  -1  -3 -13    0.44    0.49
  -4  -4  -1    0.87    0.35
  -4  -4   0    1.03    0.34
  -4  -4   8    0.31    0.40
  -4  -4   9    4.21    0.38
  -3  -4  -8   -0.01    0.38
  -1  -4 -15    0.31    0.47
  -4  -5  -4    0.36    0.36
  -3  -5 -10    0.10    0.41
   1   0  -5   15.68    0.65
   4   0  -9    0.35    0.34
   5   0  16    0.22    0.45
   7   0  -5    0.07    0.36
   6  -1 -13   -0.28    0.43
  -3  -3  -4    2.46    0.40
  -4  -4   1    4.47    0.35
  -4  -4   2    1.01    0.34
  -4  -4   3    3.24    0.35
  -4  -4   4    8.90    0.41
  -4  -4   5    6.66    0.43
  -4  -4   6    2.80    0.35
  -4  -4   7    9.32    0.38
  -3  -4  16    0.45    0.44
  -2  -4 -12    1.91    0.43
  -4  -5  -3    1.17    0.35
   4   1   1    4.19    0.35
   4   1   2    1.35    0.33
   4   1   3    1.22    0.33
   4   1   4    0.88    0.33
   4   1   5    1.35    0.33
   4   1   6    1.43    0.35
   5   1   3    0.27    0.31
   5   1   4   -0.12    0.34
   5   0  -9    7.55    0.38
   6   0  -8    0.07    0.35
   7   0  -6   -0.02    0.35
  -3  -3  12   10.15    0.37
  -4  -5  -2   -0.08    0.35
  -3  -5  -9    0.43    0.36
   0   0   0    0.00    0.00
;
_shelx_hkl_checksum              9730
loop_
_space_group_symop_operation_xyz
'x, y, z'
'-x, y+1/2, -z'
loop_
_atom_site_label
_atom_site_type_symbol
_atom_site_fract_x
_atom_site_fract_y
_atom_site_fract_z
_atom_site_U_iso_or_equiv
_atom_site_adp_type
_atom_site_occupancy
_atom_site_site_symmetry_order
_atom_site_calc_flag
_atom_site_refinement_flags_posn
_atom_site_refinement_flags_adp
O1 O 0.2341(6) 0.9100(9) 0.2087(2) 0.0471(11) Uani 1 1 d . .
O2 O 0.9254(8) 1.3853(10) 0.1880(3) 0.0608(14) Uani 1 1 d . .
O3 O 1.0614(8) 1.2662(11) 0.0860(3) 0.0578(13) Uani 1 1 d . .
N1 N 0.0206(9) 0.6236(11) 0.3670(3) 0.0487(14) Uani 1 1 d . .
N2 N 0.3963(8) 0.6038(10) 0.2799(3) 0.0419(12) Uani 1 1 d . .
N3 N 0.9237(8) 1.2525(10) 0.1340(3) 0.0452(13) Uani 1 1 d . .
C1 C 0.0451(10) 0.7672(12) 0.3112(3) 0.0434(15) Uani 1 1 d . .
H1 H -0.066232 0.885972 0.299151 0.052 Uiso 1 1 calc R U
C2 C 0.1860(10) 0.4559(11) 0.3818(3) 0.0415(15) Uani 1 1 d . .
C3 C 0.1706(11) 0.2878(14) 0.4409(4) 0.0508(17) Uani 1 1 d . .
H3 H 0.045595 0.293285 0.470969 0.061 Uiso 1 1 calc R U
C4 C 0.3326(12) 0.1182(15) 0.4553(4) 0.0534(17) Uani 1 1 d . .
H4 H 0.318092 0.003520 0.494412 0.064 Uiso 1 1 calc R U
C5 C 0.5202(12) 0.1113(16) 0.4129(4) 0.0524(17) Uani 1 1 d . .
H5 H 0.632593 -0.007843 0.423180 0.063 Uiso 1 1 calc R U
C6 C 0.5420(11) 0.2768(12) 0.3564(3) 0.0447(15) Uani 1 1 d . .
H6 H 0.671980 0.275065 0.328665 0.054 Uiso 1 1 calc R U
C7 C 0.3760(10) 0.4469(11) 0.3392(3) 0.0398(14) Uani 1 1 d . .
C8 C 0.2330(10) 0.7525(12) 0.2675(3) 0.0420(14) Uani 1 1 d . .
C9 C 0.4165(9) 0.8958(12) 0.1638(3) 0.0406(14) Uani 1 1 d . .
C10 C 0.4270(11) 0.7138(12) 0.1115(4) 0.0465(16) Uani 1 1 d . .
H10 H 0.313731 0.592080 0.106690 0.056 Uiso 1 1 calc R U
C11 C 0.6053(10) 0.7091(12) 0.0654(4) 0.0461(16) Uani 1 1 d . .
H11 H 0.613557 0.583888 0.028859 0.055 Uiso 1 1 calc R U
C12 C 0.7686(10) 0.8834(12) 0.0725(3) 0.0413(14) Uani 1 1 d . .
H12 H 0.891677 0.880163 0.041607 0.050 Uiso 1 1 calc R U
C13 C 0.7505(9) 1.0649(11) 0.1259(4) 0.0376(13) Uani 1 1 d . .
C14 C 0.5747(9) 1.0799(11) 0.1717(3) 0.0389(14) Uani 1 1 d . .
H14 H 0.562977 1.209635 0.206746 0.047 Uiso 1 1 calc R U
loop_
_atom_site_aniso_label
_atom_site_aniso_U_11
_atom_site_aniso_U_22
_atom_site_aniso_U_33
_atom_site_aniso_U_23
_atom_site_aniso_U_13
_atom_site_aniso_U_12
O1 0.042(2) 0.043(2) 0.056(3) 0.012(2) 0.0131(19) 0.004(2)
O2 0.057(3) 0.051(3) 0.074(3) -0.021(3) 0.003(2) -0.011(3)
O3 0.057(3) 0.060(3) 0.057(3) 0.006(3) 0.015(2) -0.021(3)
N1 0.050(3) 0.042(3) 0.054(3) -0.006(3) 0.014(3) -0.003(3)
N2 0.046(3) 0.035(3) 0.045(3) -0.001(3) 0.009(2) -0.003(2)
N3 0.046(3) 0.033(3) 0.056(4) 0.005(3) 0.000(3) -0.009(2)
C1 0.045(3) 0.037(3) 0.049(4) -0.001(3) 0.010(3) 0.000(3)
C2 0.049(4) 0.038(4) 0.038(4) -0.005(3) 0.007(3) -0.013(3)
C3 0.057(4) 0.049(4) 0.046(4) -0.001(3) 0.012(3) -0.011(3)
C4 0.066(4) 0.045(4) 0.049(4) 0.007(3) 0.003(3) -0.011(4)
C5 0.065(4) 0.040(3) 0.053(4) 0.001(3) 0.000(3) -0.004(3)
C6 0.052(4) 0.035(3) 0.048(4) -0.004(3) 0.005(3) -0.001(3)
C7 0.047(3) 0.033(3) 0.039(3) -0.001(3) 0.006(3) -0.006(3)
C8 0.048(4) 0.032(3) 0.046(4) 0.001(3) 0.007(3) -0.002(3)
C9 0.040(3) 0.032(3) 0.051(4) 0.010(3) 0.007(3) 0.001(3)
C10 0.048(4) 0.034(3) 0.058(4) 0.004(3) 0.005(3) -0.003(3)
C11 0.054(4) 0.028(3) 0.056(4) -0.006(3) 0.004(3) -0.002(3)
C12 0.045(3) 0.036(3) 0.044(3) 0.001(3) 0.007(3) 0.004(3)
C13 0.039(3) 0.026(3) 0.049(3) 0.002(3) 0.000(3) -0.002(2)
C14 0.045(3) 0.031(3) 0.041(3) 0.005(3) 0.005(3) -0.001(3)
loop_
_atom_type_symbol
_atom_type_description
_atom_type_scat_dispersion_real
_atom_type_scat_dispersion_imag
_atom_type_scat_source
C C 0.0033 0.0016 'International Tables Vol C Tables 4.2.6.8 and 6.1.1.4'
H H 0.0000 0.0000 'International Tables Vol C Tables 4.2.6.8 and 6.1.1.4'
N N 0.0061 0.0033 'International Tables Vol C Tables 4.2.6.8 and 6.1.1.4'
O O 0.0106 0.0060 'International Tables Vol C Tables 4.2.6.8 and 6.1.1.4'
loop_
_geom_angle_atom_site_label_1
_geom_angle_atom_site_label_2
_geom_angle_atom_site_label_3
_geom_angle
C8 O1 C9 116.7(5)
C1 N1 C2 116.6(5)
C8 N2 C7 115.5(5)
O2 N3 O3 123.7(6)
O2 N3 C13 118.3(5)
O3 N3 C13 118.0(5)
N1 C1 C8 121.8(6)
N1 C1 H1 119.1
C8 C1 H1 119.1
N1 C2 C7 121.3(6)
N1 C2 C3 120.4(6)
C7 C2 C3 118.3(6)
C4 C3 C2 120.7(6)
C4 C3 H3 119.6
C2 C3 H3 119.6
C3 C4 C5 120.5(7)
C3 C4 H4 119.7
C5 C4 H4 119.7
C6 C5 C4 119.9(7)
C6 C5 H5 120.0
C4 C5 H5 120.0
C5 C6 C7 120.7(6)
C5 C6 H6 119.6
C7 C6 H6 119.6
N2 C7 C6 119.9(5)
N2 C7 C2 120.4(6)
C6 C7 C2 119.8(6)
N2 C8 O1 120.0(5)
N2 C8 C1 124.3(6)
O1 C8 C1 115.6(6)
C10 C9 C14 122.4(6)
C10 C9 O1 120.1(6)
C14 C9 O1 117.4(6)
C9 C10 C11 119.3(6)
C9 C10 H10 120.4
C11 C10 H10 120.4
C12 C11 C10 120.4(6)
C12 C11 H11 119.8
C10 C11 H11 119.8
C11 C12 C13 118.4(6)
C11 C12 H12 120.8
C13 C12 H12 120.8
C14 C13 C12 123.2(6)
C14 C13 N3 117.8(6)
C12 C13 N3 118.9(6)
C13 C14 C9 116.3(6)
C13 C14 H14 121.9
C9 C14 H14 121.9
loop_
_geom_bond_atom_site_label_1
_geom_bond_atom_site_label_2
_geom_bond_distance
O1 C8 1.368(7)
O1 C9 1.399(7)
O2 N3 1.219(7)
O3 N3 1.232(7)
N1 C1 1.292(8)
N1 C2 1.369(8)
N2 C8 1.288(8)
N2 C7 1.380(8)
N3 C13 1.459(7)
C1 C8 1.414(8)
C1 H1 0.9500
C2 C7 1.412(8)
C2 C3 1.413(9)
C3 C4 1.360(10)
C3 H3 0.9500
C4 C5 1.396(10)
C4 H4 0.9500
C5 C6 1.372(10)
C5 H5 0.9500
C6 C7 1.388(9)
C6 H6 0.9500
C9 C10 1.369(9)
C9 C14 1.381(8)
C10 C11 1.390(9)
C10 H10 0.9500
C11 C12 1.366(9)
C11 H11 0.9500
C12 C13 1.384(9)
C12 H12 0.9500
C13 C14 1.378(8)
C14 H14 0.9500
loop_
_geom_hbond_atom_site_label_D
_geom_hbond_atom_site_label_H
_geom_hbond_atom_site_label_A
_geom_hbond_distance_DH
_geom_hbond_distance_HA
_geom_hbond_distance_DA
_geom_hbond_angle_DHA
_geom_hbond_site_symmetry_A
C10 H10 O3 0.95 2.35 3.292(8) 173.4 1_445
C12 H12 O3 0.95 2.44 3.170(8) 133.6 2_745
loop_
_geom_torsion_atom_site_label_1
_geom_torsion_atom_site_label_2
_geom_torsion_atom_site_label_3
_geom_torsion_atom_site_label_4
_geom_torsion
C2 N1 C1 C8 0.0(9)
C1 N1 C2 C7 1.8(8)
C1 N1 C2 C3 -178.6(6)
N1 C2 C3 C4 179.0(6)
C7 C2 C3 C4 -1.4(9)
C2 C3 C4 C5 1.6(11)
C3 C4 C5 C6 0.1(11)
C4 C5 C6 C7 -2.0(10)
C8 N2 C7 C6 179.0(6)
C8 N2 C7 C2 -0.1(8)
C5 C6 C7 N2 -176.9(6)
C5 C6 C7 C2 2.2(9)
N1 C2 C7 N2 -1.8(8)
C3 C2 C7 N2 178.6(6)
N1 C2 C7 C6 179.1(6)
C3 C2 C7 C6 -0.5(8)
C7 N2 C8 O1 -178.0(5)
C7 N2 C8 C1 2.0(9)
C9 O1 C8 N2 1.1(8)
C9 O1 C8 C1 -178.9(6)
N1 C1 C8 N2 -2.0(10)
N1 C1 C8 O1 177.9(6)
C8 O1 C9 C10 81.7(7)
C8 O1 C9 C14 -102.2(6)
C14 C9 C10 C11 1.5(9)
O1 C9 C10 C11 177.4(6)
C9 C10 C11 C12 0.3(10)
C10 C11 C12 C13 -0.7(9)
C11 C12 C13 C14 -0.7(9)
C11 C12 C13 N3 -179.9(5)
O2 N3 C13 C14 12.5(8)
O3 N3 C13 C14 -168.1(6)
O2 N3 C13 C12 -168.2(6)
O3 N3 C13 C12 11.2(8)
C12 C13 C14 C9 2.3(9)
N3 C13 C14 C9 -178.4(5)
C10 C9 C14 C13 -2.7(9)
O1 C9 C14 C13 -178.7(5)
