#------------------------------------------------------------------------------
#$Date: 2020-02-11 02:20:36 +0200 (Tue, 11 Feb 2020) $
#$Revision: 248006 $
#$URL: file:///home/coder/svn-repositories/cod/cif/4/03/78/4037896.cif $
#------------------------------------------------------------------------------
#
# This file is available in the Crystallography Open Database (COD),
# http://www.crystallography.net/
#
# All data on this site have been placed in the public domain by the
# contributors.
#
data_4037896
loop_
_publ_author_name
'Kumar, Anil'
'Prabhu, Kandikere Ramaiah'
_publ_section_title
;
 Rhodium(III)-Catalyzed C-H Activation: A Cascade Approach for the
 Regioselective Synthesis of Fused Heterocyclic Lactone Scaffolds.
;
_journal_name_full               'The Journal of organic chemistry'
_journal_paper_doi               10.1021/acs.joc.9b03266
_journal_year                    2020
_chemical_formula_moiety         'C14 H12 O4'
_chemical_formula_sum            'C14 H12 O4'
_chemical_formula_weight         244.24
_space_group_crystal_system      triclinic
_space_group_IT_number           2
_space_group_name_Hall           '-P 1'
_space_group_name_H-M_alt        'P -1'
_atom_sites_solution_hydrogens   geom
_atom_sites_solution_primary     dual
_audit_creation_date             2019-06-26
_audit_creation_method
;
Olex2 1.2-ac3
(compiled 2017.02.24 svn.r3390 for Rigaku Oxford Diffraction, GUI svn.r5318)
;
_cell_angle_alpha                112.818(5)
_cell_angle_beta                 94.908(4)
_cell_angle_gamma                92.972(4)
_cell_formula_units_Z            2
_cell_length_a                   5.3666(2)
_cell_length_b                   9.7979(5)
_cell_length_c                   12.3394(6)
_cell_measurement_reflns_used    4969
_cell_measurement_temperature    293(2)
_cell_measurement_theta_max      29.9150
_cell_measurement_theta_min      3.8120
_cell_volume                     593.29(5)
_computing_cell_refinement       'CrysAlisPro 1.171.39.46b (Rigaku OD, 2018)'
_computing_data_collection       'CrysAlisPro 1.171.39.46b (Rigaku OD, 2018)'
_computing_data_reduction        'CrysAlisPro 1.171.39.46b (Rigaku OD, 2018)'
_computing_molecular_graphics    'Olex2 (Dolomanov et al., 2009)'
_computing_publication_material  'Olex2 (Dolomanov et al., 2009)'
_computing_structure_refinement  'ShelXL (Sheldrick, 2015)'
_computing_structure_solution    'ShelXT (Sheldrick, 2015)'
_diffrn_ambient_temperature      293(2)
_diffrn_detector                 'CCD plate'
_diffrn_detector_type            'Pilatus 200K'
_diffrn_measured_fraction_theta_full 0.998
_diffrn_measured_fraction_theta_max 0.997
_diffrn_measurement_details
;
List of Runs (angles in degrees, time in seconds):

  # Type    Start    End  Width  t~exp~   \w     \q     \k     \f   Frames
--------------------------------------------------------------------------
  1  \w     12.00  65.00   0.50   25.00    --    3.67-142.00-155.00  106
  2  \w      5.00  57.00   0.50   25.00    --    3.67-128.00  16.00  104
  3  \w    -20.00  40.00   0.50   25.00    --    3.67 -99.00-180.00  120
  4  \w    -66.00   9.00   0.50   25.00    --    3.67 -19.00 -90.00  150
  5  \w    -20.00  40.00   0.50   25.00    --    3.67 -99.00   0.00  120
  6  \w    -62.00   7.00   0.50   25.00    --    3.67 -38.00  30.00  138
  7  \w    -20.00  32.00   0.50   25.00    --   -3.98 -99.00-180.00  104
  8  \w    -14.00  32.00   0.50   25.00    --   -3.98 -99.00-120.00   92
  9  \w    -19.00  27.00   0.50   25.00    --   -3.98 -99.00  90.00   92
 10  \w     -8.00  51.00   0.50   25.00    --   -3.98  57.00-150.00  118
;
_diffrn_measurement_device       'four-circle diffractometer'
_diffrn_measurement_device_type
'SuperNova, Dual, Cu at home/near, Pilatus 200K'
_diffrn_measurement_method       '\w scans'
_diffrn_orient_matrix_type
'CrysAlisPro convention (1999,Acta A55,543-557)'
_diffrn_orient_matrix_UB_11      0.0168081000
_diffrn_orient_matrix_UB_12      0.0412171000
_diffrn_orient_matrix_UB_13      -0.0354869000
_diffrn_orient_matrix_UB_21      -0.0385225000
_diffrn_orient_matrix_UB_22      -0.0649180000
_diffrn_orient_matrix_UB_23      -0.0516716000
_diffrn_orient_matrix_UB_31      -0.1264242000
_diffrn_orient_matrix_UB_32      0.0175647000
_diffrn_orient_matrix_UB_33      0.0034332000
_diffrn_radiation_monochromator  mirror
_diffrn_radiation_probe          x-ray
_diffrn_radiation_type           MoK\a
_diffrn_radiation_wavelength     0.71073
_diffrn_reflns_av_R_equivalents  0.0336
_diffrn_reflns_av_unetI/netI     0.0269
_diffrn_reflns_Laue_measured_fraction_full 0.998
_diffrn_reflns_Laue_measured_fraction_max 0.997
_diffrn_reflns_limit_h_max       6
_diffrn_reflns_limit_h_min       -6
_diffrn_reflns_limit_k_max       12
_diffrn_reflns_limit_k_min       -11
_diffrn_reflns_limit_l_max       15
_diffrn_reflns_limit_l_min       -15
_diffrn_reflns_number            10224
_diffrn_reflns_point_group_measured_fraction_full 0.998
_diffrn_reflns_point_group_measured_fraction_max 0.997
_diffrn_reflns_theta_full        25.242
_diffrn_reflns_theta_max         26.357
_diffrn_reflns_theta_min         3.407
_diffrn_source                   'micro-focus sealed X-ray tube'
_diffrn_source_type              'SuperNova (Mo) X-ray Source'
_exptl_absorpt_coefficient_mu    0.101
_exptl_absorpt_correction_T_max  1.00000
_exptl_absorpt_correction_T_min  0.67443
_exptl_absorpt_correction_type   multi-scan
_exptl_absorpt_process_details
;
CrysAlisPro 1.171.39.46b (Rigaku Oxford Diffraction, 2018)
Empirical absorption correction using spherical harmonics,
 implemented in SCALE3 ABSPACK scaling algorithm.
;
_exptl_crystal_colour            'metallic light white'
_exptl_crystal_colour_lustre     metallic
_exptl_crystal_colour_modifier   light
_exptl_crystal_colour_primary    white
_exptl_crystal_density_diffrn    1.367
_exptl_crystal_description       needle
_exptl_crystal_F_000             256
_exptl_crystal_size_max          0.002
_exptl_crystal_size_mid          0.001
_exptl_crystal_size_min          0.001
_refine_diff_density_max         0.208
_refine_diff_density_min         -0.172
_refine_diff_density_rms         0.039
_refine_ls_extinction_method     none
_refine_ls_goodness_of_fit_ref   1.095
_refine_ls_hydrogen_treatment    constr
_refine_ls_matrix_type           full
_refine_ls_number_parameters     166
_refine_ls_number_reflns         2421
_refine_ls_number_restraints     0
_refine_ls_restrained_S_all      1.095
_refine_ls_R_factor_all          0.0530
_refine_ls_R_factor_gt           0.0412
_refine_ls_shift/su_max          0.000
_refine_ls_shift/su_mean         0.000
_refine_ls_structure_factor_coef Fsqd
_refine_ls_weighting_details
'w=1/[\s^2^(Fo^2^)+(0.0600P)^2^+0.0760P] where P=(Fo^2^+2Fc^2^)/3'
_refine_ls_weighting_scheme      calc
_refine_ls_wR_factor_gt          0.1131
_refine_ls_wR_factor_ref         0.1210
_reflns_Friedel_coverage         0.000
_reflns_number_gt                1871
_reflns_number_total             2421
_reflns_threshold_expression     'I > 2\s(I)'
_iucr_refine_instructions_details
;
TITL pcr_ak_3_382_a.res in P-1
 pcr_ak_3_382.res created by SHELXL-2016/4 at 21:17:51 on 26-Jun-2019
REM Old TITL pcr_ak_3_382_a.res in P-1
REM SHELXT solution in P-1
REM R1 0.153, Rweak 0.006, Alpha 0.037, Orientation as input
REM Formula found by SHELXT: C14 O4
CELL 0.71073 5.3666 9.7979 12.3394 112.818 94.908 92.972
ZERR 2 0.0002 0.0005 0.0006 0.005 0.004 0.004
LATT 1
SFAC C H O
UNIT 28 24 8

L.S. 10
PLAN  20
TEMP 20(2)
BOND $H
list 4
fmap 2
ACTA
SHEL 100 0.8
REM <olex2.extras>
REM <HklSrc "%.\\PCR_AK_3_382.hkl">
REM </olex2.extras>

WGHT    0.060000    0.076000
FVAR       0.87396
O001  3    0.188229    0.488118    0.154017    11.00000    0.03941    0.04348 =
         0.03852    0.00991   -0.00200    0.01154
O002  3    0.656223    0.237926    0.139695    11.00000    0.04013    0.04110 =
         0.04524    0.00956    0.00308    0.01220
O003  3    0.906340    0.342837    0.310816    11.00000    0.04358    0.06478 =
         0.05304    0.02210   -0.00302    0.01730
O004  3   -0.028356    0.682136    0.224513    11.00000    0.06334    0.06619 =
         0.05769    0.01407   -0.00459    0.03347
C005  1    0.382688    0.414802    0.172510    11.00000    0.03176    0.03626 =
         0.03835    0.01193    0.00327    0.00571
C006  1    0.541008    0.457920    0.270759    11.00000    0.03373    0.03652 =
         0.03627    0.01331    0.00332    0.00423
C007  1    0.512371    0.591429    0.371571    11.00000    0.03673    0.03657 =
         0.03562    0.01357    0.00503    0.00196
C008  1    0.309539    0.670146    0.357938    11.00000    0.04019    0.03586 =
         0.03762    0.01350    0.00525    0.00403
C009  1    0.723399    0.347380    0.249615    11.00000    0.03666    0.04055 =
         0.04199    0.01500    0.00452    0.00556
C00A  1    0.441997    0.273674    0.077595    11.00000    0.03499    0.04134 =
         0.04161    0.00642    0.00001    0.00809
C00B  1    0.665862    0.645051    0.478988    11.00000    0.04290    0.04970 =
         0.03802    0.01364    0.00088    0.00406
AFIX  43
H00B  2    0.803025    0.595279    0.489256    11.00000   -1.20000
AFIX   0
C00C  1    0.613386    0.772155    0.569884    11.00000    0.05646    0.05210 =
         0.03518    0.01163   -0.00139   -0.00301
AFIX  43
H00C  2    0.717655    0.807204    0.641085    11.00000   -1.20000
AFIX   0
C00D  1    0.143030    0.620932    0.246094    11.00000    0.04141    0.04077 =
         0.04159    0.01218    0.00436    0.01121
C00E  1    0.409854    0.849922    0.558890    11.00000    0.06366    0.03885 =
         0.03929    0.00860    0.01172    0.00122
C00F  1    0.259992    0.797967    0.451663    11.00000    0.05339    0.03833 =
         0.04632    0.01386    0.01057    0.00975
AFIX  43
H00F  2    0.124227    0.849026    0.441942    11.00000   -1.20000
AFIX   0
C00G  1    0.532733    0.297537   -0.027120    11.00000    0.05986    0.06813 =
         0.03903    0.01217    0.00649    0.01761
AFIX 137
H00A  2    0.670015    0.373954    0.000086    11.00000   -1.50000
H00D  2    0.397954    0.327102   -0.067072    11.00000   -1.50000
H00E  2    0.587772    0.206688   -0.080780    11.00000   -1.50000
AFIX   0
C00H  1    0.233111    0.150099    0.043435    11.00000    0.04657    0.04250 =
         0.07783   -0.00015    0.00164    0.00211
AFIX 137
H00G  2    0.289574    0.058713   -0.008635    11.00000   -1.50000
H00H  2    0.090279    0.173813    0.003925    11.00000   -1.50000
H00I  2    0.186758    0.139252    0.113309    11.00000   -1.50000
AFIX   0
C00I  1    0.351981    0.984946    0.661857    11.00000    0.10212    0.04771 =
         0.04895    0.00305    0.01667    0.00999
AFIX 137
H00J  2    0.248388    0.954536    0.709690    11.00000   -1.50000
H00K  2    0.264840    1.049345    0.632884    11.00000   -1.50000
H00L  2    0.505818    1.037041    0.708643    11.00000   -1.50000
AFIX   0
HKLF 4




REM  pcr_ak_3_382_a.res in P-1
REM R1 =  0.0412 for    1871 Fo > 4sig(Fo)  and  0.0530 for all    2421 data
REM    166 parameters refined using      0 restraints

END  
     
WGHT      0.0593      0.0792 

REM Highest difference peak  0.208,  deepest hole -0.172,  1-sigma level  0.039
Q1    1   0.1199  0.9816  0.6618  11.00000  0.05    0.21
Q2    1   0.4217  0.4181  0.2433  11.00000  0.05    0.17
Q3    1   0.5180  0.4598  0.2057  11.00000  0.05    0.17
Q4    1   0.3918  0.9728  0.7457  11.00000  0.05    0.16
Q5    1   0.2699  0.6553  0.3030  11.00000  0.05    0.16
Q6    1   0.3639  0.6062  0.3764  11.00000  0.05    0.15
Q7    1   0.4343  1.0907  0.6581  11.00000  0.05    0.15
Q8    1   0.4178  0.3516  0.1197  11.00000  0.05    0.14
Q9    1   0.6535  0.4296  0.2606  11.00000  0.05    0.14
Q10   1   0.2554  0.7016  0.3980  11.00000  0.05    0.13
Q11   1   0.5130  0.4977  0.3248  11.00000  0.05    0.13
Q12   1   0.4669  0.6547  0.3533  11.00000  0.05    0.11
Q13   1   0.3776  0.8479  0.4929  11.00000  0.05    0.11
Q14   1   1.0548  0.3443  0.2350  11.00000  0.05    0.11
Q15   1   0.6182  0.6263  0.4061  11.00000  0.05    0.11
Q16   1   0.0197  0.1428  0.0465  11.00000  0.05    0.11
Q17   1   0.0629  0.2425  0.1380  11.00000  0.05    0.10
Q18   1  -0.0542  0.4785  0.1559  11.00000  0.05    0.10
Q19   1  -0.0433  0.8018  0.4561  11.00000  0.05    0.10
Q20   1   0.5739  0.8500  0.5575  11.00000  0.05    0.10

  REM The information below was added by Olex2.
  REM
  REM R1 = 0.0412 for 1871 Fo > 4sig(Fo) and 0.0530 for all 10883 data
  REM n/a parameters refined using n/a restraints
  REM Highest difference peak 0.21, deepest hole -0.17
  REM Mean Shift 0, Max Shift 0.000.

  REM +++ Tabular Listing of Refinement Information +++
  REM R1_all = 0.0530
  REM R1_gt = 0.0412
  REM wR_ref = 0.1210
  REM GOOF = 1.095
  REM Shift_max = 0.000
  REM Shift_mean = 0
  REM Reflections_all = 10883
  REM Reflections_gt = 1871
  REM Parameters = n/a
  REM Hole = -0.17
  REM Peak = 0.21
  REM Flack = n/a

  
;
_cod_data_source_file            jo9b03266_si_002.cif
_cod_data_source_block           pcr_ak_3_382
_cod_database_code               4037896
_shelx_shelxl_version_number     2016/4
_chemical_oxdiff_formula         'C14 H12 O4'
_shelx_space_group_comment
;
The symmetry employed for this shelxl refinement is uniquely defined
by the following loop, which should always be used as a source of
symmetry information in preference to the above space-group names.
They are only intended as comments.
;
_diffrn_oxdiff_ac3_digest_frames
;
015bd6f35c3acf9ee5c56a7f99b6ed42fc00025b94e
;
_diffrn_oxdiff_ac3_digest_hkl
;
0149a52e9762e7ab5cab92cfbfecf0ec8b0dda
;
_reflns_odcompleteness_completeness 99.63
_reflns_odcompleteness_iscentric 1
_reflns_odcompleteness_theta     26.32
_olex2_refinement_description
;
1. Fixed Uiso
 At 1.2 times of:
  All C(H) groups
 At 1.5 times of:
  All C(H,H,H) groups
2.a Aromatic/amide H refined with riding coordinates:
 C00B(H00B), C00C(H00C), C00F(H00F)
2.b Idealised Me refined as rotating group:
 C00G(H00A,H00D,H00E), C00H(H00G,H00H,H00I), C00I(H00J,H00K,H00L)
;
_olex2_submission_special_instructions 'No special instructions were received'
_oxdiff_exptl_absorpt_empirical_details
;
Empirical correction (ABSPACK) includes:
- Absorption correction using spherical harmonics
- Frame scaling
;
_oxdiff_exptl_absorpt_empirical_full_max 2.286
_oxdiff_exptl_absorpt_empirical_full_min 0.626
loop_
_space_group_symop_operation_xyz
'x, y, z'
'-x, -y, -z'
loop_
_atom_site_label
_atom_site_type_symbol
_atom_site_fract_x
_atom_site_fract_y
_atom_site_fract_z
_atom_site_U_iso_or_equiv
_atom_site_adp_type
_atom_site_occupancy
_atom_site_site_symmetry_order
_atom_site_calc_flag
_atom_site_refinement_flags_posn
O001 O 0.18823(17) 0.48812(11) 0.15402(8) 0.0425(3) Uani 1 1 d .
O002 O 0.65622(18) 0.23793(11) 0.13970(9) 0.0442(3) Uani 1 1 d .
O003 O 0.90634(19) 0.34284(13) 0.31082(9) 0.0542(3) Uani 1 1 d .
O004 O -0.0284(2) 0.68214(14) 0.22451(10) 0.0653(4) Uani 1 1 d .
C005 C 0.3827(2) 0.41480(16) 0.17251(12) 0.0363(3) Uani 1 1 d .
C006 C 0.5410(2) 0.45792(15) 0.27076(12) 0.0358(3) Uani 1 1 d .
C007 C 0.5124(2) 0.59143(16) 0.37157(12) 0.0365(3) Uani 1 1 d .
C008 C 0.3095(3) 0.67015(16) 0.35794(12) 0.0381(3) Uani 1 1 d .
C009 C 0.7234(3) 0.34738(16) 0.24961(12) 0.0401(3) Uani 1 1 d .
C00A C 0.4420(3) 0.27367(17) 0.07760(12) 0.0425(4) Uani 1 1 d .
C00B C 0.6659(3) 0.64505(18) 0.47899(12) 0.0449(4) Uani 1 1 d .
H00B H 0.803025 0.595279 0.489256 0.054 Uiso 1 1 calc R
C00C C 0.6134(3) 0.77215(19) 0.56988(13) 0.0504(4) Uani 1 1 d .
H00C H 0.717655 0.807204 0.641085 0.060 Uiso 1 1 calc R
C00D C 0.1430(3) 0.62093(17) 0.24609(13) 0.0423(4) Uani 1 1 d .
C00E C 0.4099(3) 0.84992(18) 0.55889(13) 0.0491(4) Uani 1 1 d .
C00F C 0.2600(3) 0.79797(17) 0.45166(13) 0.0464(4) Uani 1 1 d .
H00F H 0.124227 0.849026 0.441942 0.056 Uiso 1 1 calc R
C00G C 0.5327(3) 0.2975(2) -0.02712(13) 0.0579(5) Uani 1 1 d .
H00A H 0.670015 0.373954 0.000086 0.087 Uiso 1 1 calc GR
H00D H 0.397954 0.327102 -0.067072 0.087 Uiso 1 1 calc GR
H00E H 0.587772 0.206688 -0.080780 0.087 Uiso 1 1 calc GR
C00H C 0.2331(3) 0.15010(19) 0.04343(18) 0.0634(5) Uani 1 1 d .
H00G H 0.289574 0.058713 -0.008635 0.095 Uiso 1 1 calc GR
H00H H 0.090279 0.173813 0.003925 0.095 Uiso 1 1 calc GR
H00I H 0.186758 0.139252 0.113309 0.095 Uiso 1 1 calc GR
C00I C 0.3520(4) 0.9849(2) 0.66186(16) 0.0706(6) Uani 1 1 d .
H00J H 0.248388 0.954536 0.709690 0.106 Uiso 1 1 calc GR
H00K H 0.264840 1.049345 0.632884 0.106 Uiso 1 1 calc GR
H00L H 0.505818 1.037041 0.708643 0.106 Uiso 1 1 calc GR
loop_
_atom_site_aniso_label
_atom_site_aniso_U_11
_atom_site_aniso_U_22
_atom_site_aniso_U_33
_atom_site_aniso_U_23
_atom_site_aniso_U_13
_atom_site_aniso_U_12
O001 0.0394(5) 0.0435(6) 0.0385(5) 0.0099(4) -0.0020(4) 0.0115(4)
O002 0.0401(5) 0.0411(6) 0.0452(6) 0.0096(5) 0.0031(4) 0.0122(4)
O003 0.0436(6) 0.0648(8) 0.0530(7) 0.0221(6) -0.0030(5) 0.0173(5)
O004 0.0633(7) 0.0662(8) 0.0577(7) 0.0141(6) -0.0046(6) 0.0335(6)
C005 0.0318(7) 0.0363(7) 0.0383(7) 0.0119(6) 0.0033(5) 0.0057(5)
C006 0.0337(7) 0.0365(7) 0.0363(7) 0.0133(6) 0.0033(5) 0.0042(5)
C007 0.0367(7) 0.0366(7) 0.0356(7) 0.0136(6) 0.0050(5) 0.0020(5)
C008 0.0402(7) 0.0359(8) 0.0376(7) 0.0135(6) 0.0053(6) 0.0040(6)
C009 0.0367(7) 0.0406(8) 0.0420(8) 0.0150(6) 0.0045(6) 0.0056(6)
C00A 0.0350(7) 0.0413(8) 0.0416(8) 0.0064(6) 0.0000(6) 0.0081(6)
C00B 0.0429(8) 0.0497(9) 0.0380(8) 0.0136(7) 0.0009(6) 0.0041(6)
C00C 0.0565(9) 0.0521(10) 0.0352(8) 0.0116(7) -0.0014(6) -0.0030(7)
C00D 0.0414(8) 0.0408(8) 0.0416(8) 0.0122(6) 0.0044(6) 0.0112(6)
C00E 0.0637(10) 0.0389(8) 0.0393(8) 0.0086(6) 0.0117(7) 0.0012(7)
C00F 0.0534(9) 0.0383(8) 0.0463(8) 0.0139(7) 0.0106(7) 0.0098(6)
C00G 0.0599(10) 0.0681(12) 0.0390(8) 0.0122(8) 0.0065(7) 0.0176(8)
C00H 0.0466(9) 0.0425(9) 0.0778(12) -0.0002(8) 0.0016(8) 0.0021(7)
C00I 0.1021(15) 0.0477(11) 0.0490(10) 0.0031(8) 0.0167(9) 0.0100(10)
loop_
_atom_type_symbol
_atom_type_description
_atom_type_scat_dispersion_real
_atom_type_scat_dispersion_imag
_atom_type_scat_source
C C 0.0033 0.0016 'International Tables Vol C Tables 4.2.6.8 and 6.1.1.4'
H H 0.0000 0.0000 'International Tables Vol C Tables 4.2.6.8 and 6.1.1.4'
O O 0.0106 0.0060 'International Tables Vol C Tables 4.2.6.8 and 6.1.1.4'
loop_
_geom_angle_atom_site_label_1
_geom_angle_atom_site_label_2
_geom_angle_atom_site_label_3
_geom_angle
C005 O001 C00D 118.44(10)
C009 O002 C00A 111.44(10)
O001 C005 C00A 120.98(11)
C006 C005 O001 125.68(12)
C006 C005 C00A 113.32(12)
C005 C006 C007 120.96(12)
C005 C006 C009 106.60(12)
C007 C006 C009 132.44(12)
C008 C007 C006 115.65(12)
C00B C007 C006 125.40(13)
C00B C007 C008 118.94(13)
C007 C008 C00D 121.64(12)
C00F C008 C007 120.19(13)
C00F C008 C00D 118.17(13)
O002 C009 C006 108.22(11)
O003 C009 O002 121.17(13)
O003 C009 C006 130.61(14)
O002 C00A C005 100.21(10)
O002 C00A C00G 107.57(11)
O002 C00A C00H 109.01(13)
C005 C00A C00G 112.68(14)
C005 C00A C00H 112.74(12)
C00H C00A C00G 113.58(14)
C007 C00B H00B 120.2
C00C C00B C007 119.62(14)
C00C C00B H00B 120.2
C00B C00C H00C 118.9
C00B C00C C00E 122.26(14)
C00E C00C H00C 118.9
O001 C00D C008 117.58(12)
O004 C00D O001 115.67(13)
O004 C00D C008 126.75(13)
C00C C00E C00I 120.78(15)
C00F C00E C00C 118.07(14)
C00F C00E C00I 121.13(16)
C008 C00F H00F 119.6
C00E C00F C008 120.89(15)
C00E C00F H00F 119.6
C00A C00G H00A 109.5
C00A C00G H00D 109.5
C00A C00G H00E 109.5
H00A C00G H00D 109.5
H00A C00G H00E 109.5
H00D C00G H00E 109.5
C00A C00H H00G 109.5
C00A C00H H00H 109.5
C00A C00H H00I 109.5
H00G C00H H00H 109.5
H00G C00H H00I 109.5
H00H C00H H00I 109.5
C00E C00I H00J 109.5
C00E C00I H00K 109.5
C00E C00I H00L 109.5
H00J C00I H00K 109.5
H00J C00I H00L 109.5
H00K C00I H00L 109.5
loop_
_geom_bond_atom_site_label_1
_geom_bond_atom_site_label_2
_geom_bond_distance
O001 C005 1.3495(16)
O001 C00D 1.4058(16)
O002 C009 1.3667(17)
O002 C00A 1.4597(17)
O003 C009 1.2000(17)
O004 C00D 1.1898(18)
C005 C006 1.3264(19)
C005 C00A 1.4961(19)
C006 C007 1.4400(18)
C006 C009 1.4607(19)
C007 C008 1.402(2)
C007 C00B 1.3927(19)
C008 C00D 1.471(2)
C008 C00F 1.393(2)
C00A C00G 1.514(2)
C00A C00H 1.511(2)
C00B H00B 0.9300
C00B C00C 1.377(2)
C00C H00C 0.9300
C00C C00E 1.390(2)
C00E C00F 1.382(2)
C00E C00I 1.506(2)
C00F H00F 0.9300
C00G H00A 0.9600
C00G H00D 0.9600
C00G H00E 0.9600
C00H H00G 0.9600
C00H H00H 0.9600
C00H H00I 0.9600
C00I H00J 0.9600
C00I H00K 0.9600
C00I H00L 0.9600
loop_
_refln_index_h
_refln_index_k
_refln_index_l
_refln_F_squared_meas
_refln_F_squared_sigma
0 0 -2 115.09 3.6
0 0 -3 -0.08 0.13
0 0 -3 -0.11 0.2
0 0 -3 -0.02 0.12
0 0 4 23.4 1.13
0 0 -4 21.13 1.1
0 0 -5 0.21 0.15
0 0 5 0.12 0.26
0 0 -5 0.13 0.24
0 0 5 0.29 0.11
0 0 -5 0.29 0.17
0 0 -6 18.21 0.85
0 0 6 17.77 0.7
0 0 -6 19.52 1.22
0 0 -6 20.26 0.87
0 0 7 30.52 1.07
0 0 -7 30.79 1.75
0 0 -7 31.16 1.25
0 0 -7 32.01 1.26
0 0 -8 2.28 0.32
0 0 -8 2.42 0.61
0 0 -8 1.99 0.3
0 0 -9 1.78 0.63
0 0 -9 1.89 0.3
0 0 -9 1.68 0.28
0 0 -10 190.02 5.81
0 0 -10 198.67 7.11
0 0 -10 188.05 5.81
0 0 -11 1.95 0.77
0 0 -12 5.63 1.06
0 0 12 4.71 0.87
0 0 -13 2.43 0.86
0 0 13 2.33 0.75
0 0 13 4.27 1.48
0 0 -14 0.22 0.88
0 0 14 1.09 1.21
0 1 -14 -0.21 0.77
0 -1 14 -0.71 1.15
0 1 -13 11.98 1.52
0 -1 13 15.05 2.1
0 1 -12 7.03 1.15
0 -1 12 6.33 1.51
0 -1 11 82.79 4.54
0 1 -11 74.58 3.66
0 1 -10 21.75 1.65
0 1 -9 -0.35 0.43
0 1 -8 4.49 0.66
0 1 -7 2.39 0.5
0 1 -6 579.98 17.64
0 1 -6 590.9 17.04
0 1 -6 580.85 17.04
0 -1 5 75.85 2.44
0 1 -5 74.69 2.41
0 1 -5 73.53 2.4
0 -1 5 72.39 2.44
0 1 -5 76.56 2.44
0 -1 5 74.67 2.43
0 1 -5 84.73 2.89
0 1 -4 0.24 0.23
0 1 -4 0.49 0.15
0 -1 4 0.51 0.15
0 -1 4 0.59 0.16
0 1 -3 747.3 22.58
0 -1 3 780.24 22.31
0 -1 3 787.32 22.32
0 1 -3 761.55 22.33
0 -1 -1 340.19 10.93
0 1 1 411.58 10.93
0 -1 -2 215.81 6.85
0 1 2 222.12 6.82
0 1 2 232.76 6.71
0 1 3 6.31 0.5
0 -1 -3 5.56 0.52
0 1 4 159.54 5.11
0 -1 -4 152.85 5.16
0 1 5 22.88 1.2
0 -1 -5 26.18 1.34
0 1 5 18.56 0.73
0 1 6 156.08 4.7
0 -1 -6 143.54 5.38
0 -1 -6 155.81 4.91
0 1 7 4.3 0.31
0 -1 -7 4.78 0.73
0 -1 -7 4.8 0.46
0 -1 -7 5.8 0.5
0 1 8 301.65 9.1
0 -1 -8 327.57 9.53
0 -1 -8 327.25 10.39
0 1 8 328.98 9.95
0 -1 -8 319.05 9.52
0 -1 -9 265.17 9.56
0 1 9 297.89 9.41
0 1 9 285.41 9.1
0 -1 -9 264.48 8.5
0 -1 -9 286.28 8.55
0 -1 -10 -0.04 0.28
0 -1 -10 0.18 0.27
0 1 10 -0.13 0.54
0 -1 -10 -0.31 0.7
0 1 10 0.31 0.49
0 -1 -11 24.46 1.95
0 1 11 18.81 1.47
0 -1 -11 22.31 1.01
0 -1 -11 21.98 1.03
0 1 12 0.8 0.6
0 -1 -12 1.17 0.8
0 -1 -13 0.85 0.82
0 -1 -14 2.1 1.07
0 2 -15 7.5 1.37
0 -2 14 2.81 1.52
0 2 -14 1 0.84
0 2 -13 12.75 1.46
0 -2 13 11.65 1.95
0 -2 12 15.13 1.98
0 2 -12 14.82 1.5
0 -2 11 31.19 2.57
0 2 -11 27.16 1.92
0 -2 10 16.98 1.77
0 2 -10 10.97 1.13
0 2 -9 1.6 0.51
0 -2 9 1.54 0.68
0 -2 8 16.39 0.85
0 2 -8 17.2 1.25
0 2 -8 16.76 0.67
0 2 -8 15.73 0.84
0 2 -7 4.83 0.44
0 -2 7 4.92 0.43
0 2 -7 4.17 0.62
0 2 -7 4.04 0.32
0 -2 7 4.83 0.41
0 2 -6 1026.26 29.39
0 -2 6 971.36 29.4
0 -2 6 1033.5 29.37
0 2 -6 1020.72 29.9
0 2 -5 76.4 2.66
0 -2 5 76.51 2.63
0 2 -5 81.47 2.98
0 -2 5 83.32 2.66
0 -2 5 83.8 3.36
0 -2 4 220.73 7.11
0 2 -4 211.39 6.51
0 2 -3 767.03 21.96
0 -2 3 714.97 22.06
0 -2 2 1742.87 50.46
0 2 -2 1770.97 50.44
0 2 -2 1705.87 50.33
0 2 -1 9.03 0.73
0 2 -1 12.18 0.82
0 2 0 1059.5 30.97
0 -2 -1 82.58 2.66
0 2 1 83.75 2.86
0 2 1 83.17 2.99
0 -2 -2 246.9 7.81
0 2 2 253.53 7.96
0 2 2 251.31 7.59
0 2 2 254.58 7.76
0 2 3 142.88 4.97
0 -2 -3 156.56 5.13
0 2 3 157.97 4.85
0 2 4 0.8 0.3
0 -2 -4 0.52 0.34
0 2 5 61.26 2.34
0 -2 -5 52.84 2.51
0 2 5 60.02 2.03
0 2 6 2.33 0.43
0 2 6 1.47 0.23
0 -2 -6 1.93 0.54
0 2 7 3.93 0.29
0 2 7 4.79 0.61
0 2 7 4.76 0.69
0 -2 -7 4.68 0.75
0 -2 -7 3.69 0.28
0 -2 -8 67.32 3.21
0 2 8 70.49 2.91
0 2 8 69.5 3.05
0 -2 -8 68.47 2.59
0 2 8 64.1 2.23
0 2 9 197.63 5.84
0 2 9 183.64 5.85
0 2 9 217.85 6.95
0 2 9 227.92 7.22
0 -2 -9 208.52 6.43
0 -2 -9 204.62 7.42
0 -2 -9 220.32 6.46
0 -2 -10 3.36 0.89
0 2 10 3.2 0.67
0 2 10 2.89 0.7
0 -2 -10 2.94 0.47
0 -2 -10 3.61 0.54
0 -2 -11 -0.19 0.7
0 2 11 0.25 0.58
0 -2 -11 0.55 0.36
0 2 11 0.77 0.61
0 -2 -11 -0.32 0.36
0 -2 -12 1.84 0.37
0 -2 -12 1.71 0.39
0 -2 -12 1.88 0.96
0 -2 -13 3.44 1.1
0 -3 15 3.54 1.61
0 3 -15 4.02 1.05
0 3 -14 9.16 1.33
0 -3 14 5.66 1.63
0 -3 13 12.34 1.95
0 3 -13 10.87 1.33
0 3 -12 31.31 2.15
0 -3 12 29.31 2.71
0 -3 11 6.23 1.3
0 3 -11 9.06 1.09
0 -3 10 16.58 0.92
0 3 -10 15.26 1.33
0 -3 10 16.64 1.78
0 3 -10 14.46 0.92
0 -3 10 16.55 0.93
0 3 -10 16.85 0.75
0 3 -9 9.12 0.58
0 -3 9 9.96 0.7
0 3 -9 10.03 0.72
0 -3 9 11.13 0.73
0 3 -9 11.37 1.07
0 -3 9 8.81 1.32
0 3 -8 158.83 5.17
0 3 -8 163.78 5.04
0 -3 8 148.55 5.14
0 -3 8 165.48 6.45
0 -3 8 163.93 5.18
0 3 -8 165.96 5.76
0 3 -7 147.8 4.73
0 -3 7 157.27 5.83
0 3 -7 145.73 5.15
0 -3 7 132.42 4.65
0 -3 7 147.18 4.7
0 -3 6 30.3 1.3
0 3 -6 29.37 1.33
0 -3 6 25.36 1.81
0 -3 6 27.25 1.27
0 3 -5 0.24 0.25
0 -3 5 0.57 0.51
0 -3 4 271.66 9.02
0 3 -4 278.51 8.44
0 3 -4 268.64 8.77
0 3 -3 126.38 4.58
0 -3 3 142.18 4.9
0 3 -2 620.23 19.43
0 -3 2 653.69 19.62
0 3 -2 683.85 19.72
0 3 -1 46.82 2.17
0 3 0 377.6 11.79
0 3 1 56.12 2.46
0 3 2 537.18 15.6
0 3 2 491.2 15
0 3 3 1088.41 31.92
0 3 3 1107.95 32.53
0 -3 -4 95.42 3.74
0 3 4 96.37 3.41
0 -3 -5 49.12 2.49
0 3 5 54.24 2.21
0 3 6 1.87 0.54
0 3 6 1.34 0.28
0 3 6 0.75 0.4
0 -3 -6 0.72 0.47
0 3 7 433.33 13.14
0 -3 -7 444.06 14.28
0 3 7 472.57 13.97
0 3 7 438.38 13.69
0 3 8 8.85 0.55
0 -3 -8 8.83 1.21
0 3 8 10.71 1.03
0 3 8 10.67 1.07
0 -3 -8 8.4 0.54
0 3 9 14.43 1.26
0 -3 -9 15.42 1.57
0 3 9 17.74 1.43
0 3 9 16.08 0.79
0 -3 -10 5.23 1.03
0 3 10 5.34 0.91
0 3 11 5.42 1.03
0 -3 -11 4.33 1.11
0 -3 -12 -0.23 0.94
0 -3 -13 1.97 1.07
0 -4 15 1.2 1.42
0 4 -15 1.02 0.8
0 -4 14 32.82 3.25
0 4 -14 29.91 2.28
0 -4 13 0.32 1.01
0 4 -13 1.03 0.78
0 4 -12 3.71 0.83
0 -4 12 7.89 1.59
0 4 -11 1.12 0.57
0 4 -11 1.5 0.44
0 -4 11 1.05 1.01
0 4 -11 1.46 0.32
0 -4 11 1.55 0.41
0 -4 11 1.13 0.39
0 -4 10 11.52 1.65
0 4 -10 13.19 0.82
0 4 -10 15.3 1.33
0 -4 10 14.26 0.93
0 -4 10 13.22 0.92
0 4 -10 14.69 0.97
0 4 -9 44.46 1.82
0 4 -9 44.59 1.95
0 -4 9 46.38 1.94
0 -4 9 42.57 2.92
0 -4 9 43.92 1.9
0 4 -9 38.65 2.23
0 4 -8 96.86 3.89
0 -4 8 101.14 4.68
0 -4 8 93.94 3.43
0 -4 8 96.7 3.47
0 4 -8 96.58 3.51
0 4 -7 66.33 2.61
0 -4 7 66.29 3.49
0 -4 6 9.14 1.16
0 4 -6 9.19 0.75
0 -4 5 35.69 2.22
0 4 -5 31.57 1.57
0 -4 4 104.23 4.31
0 4 -3 116.07 4.6
0 -4 3 120.32 4.64
0 4 -2 100.78 4.07
0 4 -1 5.17 0.79
0 -4 0 9.8 0.6
0 4 0 8.43 0.95
0 4 1 581.96 18.44
0 -4 -1 602.89 17.61
0 -4 -2 121.83 3.98
0 4 2 119.15 4.72
0 4 3 54.76 2.75
0 4 4 416.45 13.61
0 4 4 421.48 12.83
0 4 5 0.3 0.5
0 4 5 0.57 0.43
0 4 5 0.46 0.43
0 4 6 40.34 2.54
0 -4 -6 43.95 2.46
0 4 6 44.07 1.84
0 4 6 41.49 2.07
0 4 6 37.03 2.07
0 4 7 88 4.13
0 -4 -7 77.26 3.77
0 4 7 86.29 3.54
0 4 7 75.94 2.9
0 4 7 80.91 3.34
0 4 8 3.97 0.46
0 4 8 4.61 0.83
0 -4 -8 5.78 1.06
0 4 8 3.53 0.75
0 4 8 3.79 1.05
0 4 9 9.73 0.63
0 -4 -9 10.47 0.64
0 4 9 10.55 1.18
0 -4 -9 14.01 1.55
0 4 9 13.91 1.63
0 4 9 11.45 0.74
0 -4 -10 0.37 0.45
0 4 10 -0.15 0.23
0 -4 -10 -0.41 0.85
0 4 10 -0.94 0.94
0 4 10 0.2 0.21
0 4 10 0.15 0.63
0 -4 -11 4.21 1.13
0 -4 -11 2.09 0.59
0 5 -15 24.55 2.16
0 -5 15 26.78 3.21
0 5 -14 19.93 1.88
0 -5 14 24.9 2.92
0 -5 13 1.38 1.22
0 5 -13 -0.17 0.64
0 -5 12 -0.31 1.11
0 5 -12 0.16 0.54
0 5 -11 0.82 0.45
0 5 -11 0.77 0.35
0 -5 11 0.48 0.37
0 5 -11 0.14 0.51
0 -5 11 0.28 0.95
0 -5 11 0.76 0.44
0 5 -10 49.4 2.27
0 -5 10 54.06 2.29
0 5 -10 48.99 2.17
0 5 -10 52.23 2.69
0 -5 10 51.33 3.59
0 -5 10 50.91 2.31
0 -5 9 60.01 3.83
0 -5 9 66.8 2.75
0 -5 9 67.57 2.69
0 5 -9 61.83 2.69
0 5 -9 65.67 3.05
0 -5 8 2 0.76
0 5 -8 1.48 0.46
0 -5 8 1.5 0.98
0 5 -7 4.08 0.61
0 -5 7 3.34 0.95
0 -5 6 6.07 1.11
0 5 -6 7.84 0.78
0 5 -5 27.4 1.7
0 -5 5 29.11 2.11
0 -5 4 187.27 7.08
0 5 -4 191.17 6.73
0 5 -4 195.89 7.1
0 5 -3 -0.23 0.52
0 5 -3 0.14 0.51
0 5 -2 177.31 6.4
0 5 -2 173.19 6.55
0 5 -1 17.45 1.5
0 -5 0 14.3 0.84
0 5 0 12.78 1.31
0 5 1 597.72 19.33
0 -5 -1 601.54 18.25
0 5 1 618.86 18.74
0 -5 -1 642.53 18.45
0 -5 -2 19.41 1.03
0 5 2 19.46 1.62
0 5 3 3.89 0.86
0 -5 -3 5.56 0.54
0 5 4 7.01 0.84
0 5 4 8.61 1.19
0 5 5 24.64 1.6
0 5 5 26.1 2.05
0 5 6 5.1 0.65
0 5 6 4.95 0.75
0 5 6 4.5 1.06
0 5 6 5.03 0.8
0 5 7 7.02 0.71
0 5 7 7.74 0.98
0 5 7 7.84 1.27
0 5 8 -0.07 0.32
0 5 8 -0.23 0.83
0 5 8 0.4 0.43
0 -5 -9 1.01 0.39
0 5 9 0.73 0.54
0 5 9 0.49 0.77
0 5 9 1.11 0.39
0 5 9 0.97 0.37
0 -5 -10 0.78 0.53
0 5 10 2.7 0.96
0 6 -15 0.2 0.73
0 -6 15 -0.43 1.57
0 -6 14 0.4 1.44
0 6 -14 0.56 0.68
0 -6 13 0.36 1.32
0 6 -13 0.69 0.7
0 6 -12 -0.16 0.54
0 6 -12 0.29 0.51
0 -6 12 0.34 1.09
0 -6 11 -0.49 0.87
0 6 -11 0.9 0.59
0 -6 11 1.59 0.55
0 6 -11 0.91 0.45
0 6 -11 1.76 0.56
0 -6 11 0.97 0.49
0 -6 11 1.24 1.24
0 6 -10 26.63 1.87
0 -6 10 25.99 1.6
0 -6 10 29.45 2.76
0 -6 10 28.61 1.64
0 -6 10 23.9 2.22
0 6 -10 25.58 1.61
0 6 -9 9.91 0.98
0 -6 9 10.19 1.69
0 -6 9 10.64 1.46
0 6 -8 -0.1 0.44
0 -6 8 0.24 0.89
0 -6 8 0.21 0.67
0 -6 7 1.74 0.98
0 -6 7 3.36 0.86
0 6 -7 2.99 0.58
0 6 -6 81.2 3.58
0 -6 6 77.27 4.15
0 6 -6 86.34 3.46
0 -6 5 147.71 6.26
0 6 -5 158.88 5.8
0 6 -5 152.26 6.2
0 6 -4 147.31 6.09
0 6 -4 153.37 5.78
0 6 -3 13.95 1.47
0 6 -3 12.75 1.34
0 6 -2 23.83 1.83
0 6 -2 19.71 1.73
0 6 -1 62.41 3.34
0 -6 0 154.38 4.97
0 -6 0 144.44 5.03
0 6 0 155.98 6.24
0 6 1 8.96 1.25
0 -6 -1 7.06 0.65
0 -6 -1 6.19 0.86
0 -6 -1 6.98 0.75
0 -6 -2 3.68 0.64
0 6 2 3.13 0.93
0 -6 -2 2.61 0.44
0 6 3 46 2.37
0 6 3 43.69 2.85
0 -6 -3 47.22 1.92
0 6 4 26.91 1.68
0 6 4 19.94 1.94
0 6 5 14.46 1.28
0 6 5 16.94 1.79
0 6 6 1.6 0.81
0 6 6 0.73 0.48
0 6 6 0.88 0.56
0 6 7 3.75 0.82
0 6 7 3.45 1.13
0 6 7 2.72 0.58
0 6 8 1.73 0.68
0 6 8 1.84 0.57
0 6 8 1.58 0.93
0 6 8 1.32 0.51
0 6 9 15.68 1.08
0 6 9 14.13 1.48
0 6 9 16.05 1.12
0 7 -15 5.58 1.18
0 -7 15 5.03 2.1
0 -7 14 -0.42 1.54
0 7 -14 0.77 0.66
0 -7 13 0.39 1.5
0 7 -13 -0.18 0.62
0 -7 12 2.82 1.2
0 7 -12 1.85 0.66
0 7 -12 1.52 0.79
0 -7 12 1.09 1.25
0 -7 11 11.05 1.1
0 7 -11 12.76 1.35
0 -7 11 7.77 1.48
0 -7 11 10.25 1.09
0 7 -11 8.53 0.97
0 -7 11 13.44 2.14
0 -7 10 -0.52 0.94
0 -7 10 0.31 1.23
0 7 -10 0.35 0.54
0 7 -9 0.71 0.49
0 -7 9 2.82 1.33
0 -7 9 1.49 0.88
0 -7 8 0.52 1.01
0 7 -8 0.12 0.5
0 -7 8 0.9 0.89
0 7 -7 84.13 3.74
0 -7 7 81.07 4.21
0 -7 7 84.96 4.51
0 7 -7 74.84 3.45
0 -7 6 12.4 1.61
0 7 -6 10.73 1.11
0 -7 6 13.13 1.52
0 7 -6 15.92 1.4
0 7 -5 50.11 2.62
0 7 -5 41.93 2.84
0 -7 5 40.88 2.78
0 7 -4 20.45 1.72
0 7 -4 18.18 1.86
0 -7 4 22.98 1.89
0 7 -3 1.27 0.75
0 7 -3 0.2 0.64
0 -7 3 -0.35 0.59
0 7 -2 1.2 0.76
0 -7 2 0.67 0.58
0 7 -2 2.36 0.87
0 7 -1 53.9 3.32
0 -7 1 58.16 3.07
0 7 0 10.55 1.42
0 -7 0 11.16 1.21
0 -7 0 10.32 0.78
0 -7 0 9.24 0.83
0 7 1 11.97 1.58
0 -7 -1 13.72 1.08
0 7 1 14.67 1.32
0 -7 -1 14.57 0.96
0 7 2 66.83 3.86
0 -7 -2 68.28 2.64
0 7 2 69.23 3.2
0 -7 -2 71.18 3.08
0 7 3 109.99 4.41
0 -7 -3 107.06 4.41
0 7 3 106.71 5.25
0 7 4 20.28 2.11
0 7 4 20.42 1.57
0 7 5 1.28 0.98
0 7 5 2 0.67
0 7 5 2.38 0.73
0 7 6 0.27 0.87
0 7 6 -0.14 0.53
0 7 6 0.22 0.47
0 7 7 1.54 0.68
0 7 7 3.74 1.25
0 7 7 3.87 0.84
0 7 7 3.12 0.74
0 7 8 16.96 1.62
0 7 8 16.15 1.3
0 7 8 18.4 1.36
0 -8 15 0.96 1.79
0 8 -14 0.4 0.76
0 -8 14 -0.45 1.59
0 -8 13 2.49 1.66
0 8 -13 2.82 0.93
0 8 -12 14.36 1.35
0 -8 12 19.95 2.76
0 8 -12 20.25 1.56
0 -8 11 20.08 1.53
0 -8 11 15.31 1.4
0 -8 11 15.96 2.38
0 8 -11 16.14 1.41
0 -8 11 20.73 2.33
0 -8 10 22.56 2.69
0 -8 10 29.91 2.69
0 8 -10 24.95 1.84
0 -8 9 12.61 1.77
0 8 -9 13.1 1.32
0 -8 9 10.82 1.94
0 -8 8 33.36 2.67
0 -8 8 35.73 3.01
0 8 -8 30.48 2.09
0 8 -7 104.61 3.66
0 8 -7 120.13 4.74
0 -8 7 92.7 5.13
0 -8 7 104.71 5.19
0 8 -7 114.18 4.59
0 -8 6 11.16 1.48
0 8 -6 10.95 1.24
0 8 -6 12.04 1.26
0 -8 5 1.91 0.79
0 8 -5 0.91 0.81
0 8 -5 1.71 0.8
0 8 -4 31.5 2.6
0 -8 4 28.66 2.31
0 8 -4 31.45 2.24
0 -8 3 5.33 1.07
0 8 -3 1.97 0.85
0 8 -3 4.65 1.22
0 8 -2 0.47 0.73
0 -8 2 1.87 0.84
0 8 -2 1.33 0.98
0 8 -1 2.2 1.03
0 -8 1 1.44 0.67
0 8 -1 2.64 1.02
0 -8 0 10.05 1.29
0 8 0 7.92 1.47
0 8 1 21.8 1.7
0 8 1 22.12 2.24
0 8 2 0.14 0.56
0 8 2 1.55 1.05
0 8 3 58.88 2.96
0 8 3 54.96 3.73
0 8 4 4.18 0.84
0 8 4 2.52 1.2
0 8 5 9.71 1.22
0 8 5 6.79 1.58
0 8 5 11.31 1.21
0 8 6 1.13 0.57
0 8 6 0.31 1.08
0 8 6 0.59 0.56
0 8 6 0.65 0.59
0 8 7 8.17 1.07
0 8 7 8 1.18
0 8 7 11.02 1.16
0 -9 13 29.38 3.52
0 9 -12 0.31 0.57
0 -9 12 0.8 1.61
0 9 -12 0.42 0.6
0 9 -11 2.33 0.79
0 -9 11 2.59 1.61
0 9 -10 5.18 0.98
0 -9 10 7.81 1.66
0 -9 10 3.42 1.62
0 -9 9 37.25 3.34
0 9 -9 35.78 1.82
0 9 -9 39.05 2.42
0 -9 9 37.71 3.06
0 9 -8 4.54 0.92
0 -9 8 3.44 1.19
0 9 -8 2.72 0.46
0 9 -7 0.16 0.6
0 -9 7 -0.25 1.02
0 9 -7 0.47 0.67
0 9 -6 0.16 0.67
0 9 -6 0.16 0.6
0 9 -6 0.25 0.82
0 -9 6 -0.24 0.83
0 -9 5 0.23 0.7
0 9 -5 0.52 0.84
0 9 -5 -0.17 0.75
0 9 -4 1.36 0.99
0 -9 4 3.37 1.09
0 9 -4 1.65 0.99
0 9 -3 28.07 2.63
0 -9 3 33.96 2.51
0 9 -3 27.02 2.32
0 -9 2 39.93 2.71
0 9 -2 38.72 3.09
0 9 -2 36.49 2.83
0 -9 1 4.03 1.03
0 9 -1 5.35 1.35
0 9 -1 4.39 1.3
0 9 0 4.51 0.99
0 -9 0 6.56 1.18
0 9 0 3.12 1.19
0 9 1 113.84 4.81
0 9 1 109.45 5.83
0 9 2 2.82 0.79
0 9 2 0.3 0.96
0 9 3 2.76 1.23
0 9 3 3.31 0.84
0 9 4 1.66 0.74
0 9 4 1.64 0.69
0 9 4 1.28 1.07
0 9 5 4.27 0.92
0 9 5 3.92 0.92
0 9 5 5.07 1.6
0 9 5 3.37 0.86
0 9 6 2.72 0.82
0 9 6 1.45 0.75
0 10 -13 13.44 1.68
0 10 -12 2.07 0.79
0 10 -12 0.88 0.76
0 10 -12 0.93 0.67
0 10 -11 0.18 0.71
0 10 -11 0.11 0.53
0 10 -10 7.22 0.83
0 10 -10 10.31 1.34
0 10 -9 0.35 0.68
0 10 -9 0.12 0.29
0 10 -8 1.94 0.82
0 -10 8 0.85 0.98
0 10 -7 0.89 0.69
0 10 -7 0.32 0.7
0 -10 7 -0.54 0.96
0 10 -6 -0.86 1.1
0 -10 6 -0.26 0.9
0 10 -6 0.18 0.63
0 10 -6 0.33 0.69
0 10 -5 21.96 1.91
0 10 -5 24.22 2.49
0 -10 5 19.43 2.16
0 10 -5 20.76 1.92
0 10 -4 28.25 2.8
0 10 -4 31.58 2.28
0 10 -4 29.33 2.39
0 -10 4 29.13 2.55
0 -10 3 5.1 1.23
0 10 -3 7.02 1.56
0 10 -3 3.33 1.26
0 -10 2 0.43 0.49
0 10 -2 -0.31 1.14
0 10 -2 0.45 1.18
0 -10 2 -0.45 0.78
0 10 -1 0.48 1.1
0 10 -1 2.17 1.13
0 -10 1 0.86 0.52
0 10 0 2.56 1.28
0 10 0 4.59 1.06
0 10 0 5.07 1.5
0 10 1 0.33 0.99
0 10 1 -0.16 0.62
0 10 2 0.34 1.17
0 10 2 -0.32 0.67
0 10 3 0.52 0.69
0 10 3 0.16 0.62
0 10 3 -0.35 1.17
0 10 3 1.01 0.72
0 10 4 -0.16 0.74
0 10 4 -0.34 0.66
0 10 4 -0.17 0.75
0 10 5 3.15 0.91
0 10 5 1.97 0.8
0 11 -13 0.39 0.77
0 11 -12 1.78 0.98
0 11 -12 1.26 0.77
0 11 -11 1.98 1.02
0 11 -10 0.2 0.85
0 11 -9 0.2 0.79
0 11 -8 -0.2 0.77
0 11 -7 1.57 0.79
0 11 -7 0.32 0.82
0 11 -6 1.31 1
0 11 -6 1.93 1.2
0 11 -6 2.74 0.96
0 11 -5 86.24 4.31
0 11 -5 88.87 4.3
0 11 -5 75.45 4.99
0 11 -4 40.66 2.75
0 11 -4 36.61 2.81
0 11 -4 43.19 3.64
0 11 -3 2.07 1.32
0 11 -3 1.48 1.17
0 11 -2 -0.23 1.12
0 11 -2 0.98 0.8
0 11 -2 0.34 1.15
0 -11 2 1.21 0.59
0 -11 1 3.19 0.66
0 11 -1 3.37 0.94
0 11 -1 1.76 0.83
0 11 -1 3.68 1.38
0 11 -1 3.14 1.49
0 11 0 5.85 1.68
0 11 0 7.19 1.28
0 11 0 4.93 1.08
0 11 0 6.76 1.79
0 -11 0 4.97 0.67
0 11 1 1.55 0.82
0 11 1 2.79 0.9
0 11 2 0.38 0.8
0 11 2 0.56 0.73
0 11 2 -0.17 0.71
0 11 3 0.94 0.8
0 11 3 2.25 1.03
0 11 4 4.03 1.04
0 11 4 3.37 1.1
0 12 -9 0.65 0.87
0 12 -8 1.73 0.95
0 12 -7 13.94 1.68
0 12 -6 37.74 3.58
0 12 -6 48.36 3.08
0 12 -5 0.73 1.22
0 12 -5 1.28 0.88
0 12 -4 0.38 1.28
0 12 -3 9.01 1.45
0 -12 3 6.25 0.98
0 12 -2 4.07 1.09
0 12 -2 4.92 1.18
1 -13 4 0.35 0.72
1 -12 1 0.55 0.63
-1 12 -2 0.84 0.89
1 -12 2 0.15 0.67
-1 12 -3 0.84 0.84
1 -12 3 0.81 0.74
-1 12 -4 1.68 0.86
-1 12 -5 2.33 0.95
-1 12 -5 2.92 0.96
-1 12 -6 14.33 1.7
-1 12 -6 12.93 1.61
-1 12 -7 -0.21 0.87
-1 12 -7 0.83 0.73
-1 12 -8 -0.21 0.82
-1 12 -8 0.41 0.82
-1 12 -9 0.41 0.84
-1 12 -11 1.34 0.83
-1 11 4 3.5 1.01
-1 11 4 4.22 1.16
-1 11 3 3.23 0.96
-1 11 3 5.03 1.1
-1 11 2 2.12 0.9
-1 11 2 2.39 0.93
1 -11 -1 1.83 0.67
-1 11 1 3.92 1.05
-1 11 1 5.58 1.19
-1 11 1 3.23 1.47
-1 11 0 -0.38 0.74
-1 11 0 0.7 0.67
-1 11 0 0.38 0.7
1 -11 0 -0.25 0.59
-1 11 -1 -0.15 0.65
1 -11 1 0.14 0.59
-1 11 -1 -0.19 0.75
-1 11 -1 0.19 0.79
-1 11 -2 0.27 0.34
1 -11 2 0.3 0.58
-1 11 -2 -0.38 0.76
-1 11 -3 2.85 0.9
-1 11 -4 64.63 3.51
-1 11 -4 61.24 3.48
-1 11 -5 2.25 0.86
-1 11 -5 3.65 1.03
-1 11 -5 3.87 1.55
-1 11 -6 10.39 1.41
-1 11 -6 7.45 1.22
-1 11 -7 18.37 1.73
-1 11 -7 15.79 1.64
-1 11 -8 12.02 1.55
-1 11 -8 9.12 1.35
-1 11 -9 1.37 0.87
-1 11 -9 0.74 0.8
-1 11 -10 5.7 1.18
-1 11 -10 6.41 1.22
-1 11 -11 1.97 0.93
-1 11 -11 2.37 0.86
-1 11 -11 2.19 0.9
-1 11 -12 0.96 0.85
-1 11 -12 0.2 0.9
-1 11 -12 1.63 0.82
-1 11 -13 -0.4 0.72
-1 10 5 -0.31 0.67
-1 10 5 0.51 0.76
-1 10 4 3.97 0.99
-1 10 4 4.31 0.99
-1 10 3 10.94 2.08
1 -10 -3 10.98 1.01
-1 10 3 10.89 1.33
-1 10 3 10.32 1.31
-1 10 3 11.5 1.15
-1 10 2 0.33 0.68
-1 10 2 1.38 0.75
-1 10 2 0.67 1.15
-1 10 2 0.6 0.6
1 -10 -2 1.49 0.56
-1 10 1 7.23 1.21
-1 10 1 7.68 1.3
-1 10 1 7.97 1.03
-1 10 1 7.44 1.19
1 -10 -1 4.97 0.86
-1 10 0 1.3 0.66
1 -10 0 0.76 0.63
-1 10 0 1.55 0.79
-1 10 0 1.83 0.83
-1 10 0 0.51 0.65
1 -10 1 19.73 1.99
-1 10 -1 18.6 1.59
-1 10 -1 17.46 1.43
-1 10 -1 20.61 1.81
-1 10 -1 20.25 1.78
1 -10 1 18.9 1.55
-1 10 -2 10.68 0.92
1 -10 2 14.43 1.41
1 -10 2 14.75 1.77
1 -10 3 17.42 2.03
-1 10 -3 14.41 0.91
-1 10 -3 17.63 1.65
-1 10 -4 193.77 7.2
1 -10 4 183.11 7.85
-1 10 -4 194.59 7.26
-1 10 -4 164.44 8.02
1 -10 5 1.01 1.14
-1 10 -5 0.86 0.75
-1 10 -5 1.17 0.66
-1 10 -5 0.29 1.02
1 -10 6 0.26 0.96
-1 10 -6 1.21 0.73
-1 10 -6 0.33 0.57
1 -10 7 -0.28 0.93
-1 10 -7 0.69 0.66
-1 10 -7 0.33 0.6
-1 10 -8 3.45 0.95
-1 10 -8 2.44 0.84
1 -10 8 2.93 1.27
-1 10 -9 3.88 0.99
-1 10 -9 3.92 0.93
-1 10 -10 3.41 0.92
-1 10 -10 4.41 1.03
-1 10 -10 1.91 0.69
-1 10 -11 4.25 0.96
-1 10 -11 4.68 0.97
-1 10 -11 2.47 0.86
-1 10 -11 5.56 1.09
-1 10 -12 10.33 1.4
-1 10 -12 8.55 1.2
-1 10 -12 7.05 1.29
-1 10 -12 9.39 1.35
-1 10 -13 7.94 1.32
-1 10 -13 5.88 1.2
-1 9 6 -0.52 0.68
-1 9 6 0.3 0.54
-1 9 5 0.32 1.11
-1 9 5 0.3 0.65
-1 9 5 -0.28 0.61
-1 9 5 0.11 0.5
-1 9 4 0.11 0.5
-1 9 4 0.14 0.63
-1 9 4 -0.31 0.6
-1 9 4 0.93 1.16
1 -9 -3 18.16 1.34
-1 9 3 20.29 1.7
-1 9 3 21.78 1.69
-1 9 3 18.39 1.41
-1 9 3 16.24 2.15
-1 9 2 0.11 0.48
1 -9 -2 1.05 0.55
-1 9 2 -0.15 0.64
-1 9 2 -0.15 0.57
-1 9 1 5.84 1.02
-1 9 1 4.04 0.94
1 -9 -1 4.06 0.72
-1 9 1 3.84 0.76
1 -9 0 2.92 0.95
-1 9 0 2.71 0.84
1 -9 0 2.55 0.69
-1 9 0 1.53 0.69
-1 9 0 2.94 0.91
-1 9 0 3.56 0.76
-1 9 -1 9.98 1.25
1 -9 1 10.3 1.17
-1 9 -1 8.12 1.04
1 -9 1 8.77 1.45
-1 9 -2 237.23 7.85
1 -9 2 257.44 9.34
-1 9 -2 248.53 8.78
-1 9 -3 26.65 2.53
-1 9 -3 24.96 1.89
-1 9 -3 28.66 1.99
1 -9 3 20.5 2.08
-1 9 -3 24.64 1.27
-1 9 -4 -0.15 0.52
1 -9 4 -0.9 0.82
-1 9 -4 -0.6 0.57
-1 9 -4 -1.05 0.98
1 -9 5 -0.24 0.88
-1 9 -5 2.75 0.79
-1 9 -5 1.33 0.62
-1 9 -5 2.54 1.12
1 -9 6 0.25 0.74
-1 9 -6 0.29 0.53
-1 9 -6 0.61 0.57
-1 9 -7 2.61 0.76
-1 9 -7 4.07 0.87
1 -9 7 2.59 1.02
-1 9 -8 9.4 0.89
1 -9 8 7.01 1.5
-1 9 -8 8.37 1.12
-1 9 -8 10.12 1.17
-1 9 -9 -0.22 0.61
-1 9 -9 0.16 0.56
-1 9 -9 0.14 0.58
1 -9 9 -0.28 0.97
-1 9 -10 8.64 1.18
1 -9 10 8.36 1.73
-1 9 -10 10.88 1.22
-1 9 -10 11.95 1.29
-1 9 -10 11.37 1.29
-1 9 -11 0.96 0.76
-1 9 -11 0.16 0.74
-1 9 -11 -0.57 0.68
-1 9 -11 0.82 0.73
-1 9 -12 74.89 3.93
-1 9 -12 75.43 3.73
-1 9 -12 83.44 4.01
-1 9 -13 43.31 2.63
-1 9 -13 42.46 2.78
-1 9 -13 39.59 2.85
-1 9 -14 2.27 1.11
-1 9 -14 0.2 0.83
-1 8 7 0.6 0.53
-1 8 7 1.26 1.26
-1 8 7 0.77 0.6
-1 8 7 1.08 0.64
-1 8 6 0.11 0.43
-1 8 6 1.49 1.22
-1 8 6 0.39 0.58
-1 8 6 -0.12 0.52
-1 8 5 1.99 1.09
-1 8 5 1.21 0.62
-1 8 5 1.95 0.69
-1 8 5 2.42 0.66
-1 8 4 3.15 0.77
-1 8 4 2.02 0.69
1 -8 -4 2.44 0.59
-1 8 4 4.26 0.74
1 -8 -3 4.37 0.72
-1 8 3 3.34 0.8
-1 8 3 3.1 0.72
-1 8 3 3.67 0.69
-1 8 2 0.26 0.54
-1 8 2 0.69 0.48
1 -8 -2 0.5 0.48
-1 8 2 0.41 0.54
-1 8 1 17.4 1.47
-1 8 1 16.59 1.44
1 -8 -1 18.17 1.34
-1 8 0 13.67 1.36
-1 8 0 15.74 1.43
1 -8 0 16.35 1.33
1 -8 0 15.16 1.57
1 -8 1 16.72 1.63
-1 8 -1 10.95 1.06
-1 8 -1 11.9 1.27
-1 8 -2 47.93 2.69
1 -8 2 55.11 3.18
-1 8 -2 57.13 2.86
-1 8 -2 50.55 3.41
-1 8 -2 57.27 2.32
-1 8 -3 44.25 1.85
-1 8 -3 50.68 3.29
1 -8 3 46.34 2.92
-1 8 -3 47.17 2.56
-1 8 -3 47.83 2.54
1 -8 4 -0.21 0.84
-1 8 -4 -0.13 0.49
-1 8 -4 0.23 0.83
-1 8 -4 0.13 0.52
-1 8 -5 2.15 0.66
1 -8 5 1.94 0.88
-1 8 -5 2.84 0.73
-1 8 -5 1.33 0.81
-1 8 -6 3.36 0.76
1 -8 6 1.81 0.85
-1 8 -6 5.11 0.83
1 -8 7 2.9 1.04
-1 8 -7 5.97 0.72
-1 8 -7 5.01 0.83
-1 8 -7 3.04 0.71
1 -8 7 6.59 1.29
1 -8 8 4.87 1.24
1 -8 8 7.5 1.36
-1 8 -8 4.86 0.87
-1 8 -8 6.92 0.95
-1 8 -8 5.92 0.92
1 -8 9 0.53 0.89
-1 8 -9 1.25 0.59
-1 8 -9 0.68 0.61
-1 8 -9 2.07 0.65
1 -8 9 -0.25 0.99
-1 8 -9 1.14 0.66
1 -8 10 8.32 1.82
-1 8 -10 6.86 1.09
-1 8 -10 7.17 1.03
-1 8 -10 6.44 1.09
-1 8 -10 7.83 1.02
1 -8 10 8.95 1.68
-1 8 -11 46.57 2.67
-1 8 -11 40.38 2.31
-1 8 -11 39.55 2.41
1 -8 11 42.37 3.45
1 -8 11 47.39 3.57
-1 8 -11 39.19 2.6
-1 8 -12 12.62 1.35
-1 8 -12 14.87 1.52
-1 8 -12 10.58 1.52
1 -8 12 14.41 2.32
-1 8 -13 9.18 1.5
1 -8 13 11.35 2.2
-1 8 -13 6.77 1.23
1 -8 14 12.32 2.38
-1 8 -14 13.49 1.85
-1 8 -14 15.18 1.75
-1 7 10 -0.3 1.13
-1 7 8 7.92 0.88
-1 7 8 10.61 1.14
-1 7 8 6.39 0.91
-1 7 8 6.18 1.57
-1 7 7 -0.23 0.48
-1 7 7 -0.28 0.46
-1 7 7 1.01 0.57
-1 7 7 -0.55 1.03
-1 7 6 6.2 0.82
-1 7 6 5.05 0.78
-1 7 6 3.88 1.21
-1 7 6 6.53 0.9
-1 7 5 9.13 1.03
-1 7 5 7.44 0.83
-1 7 5 9.72 0.98
-1 7 4 13.98 1.25
-1 7 4 14.54 1.13
-1 7 4 15.36 1.28
1 -7 -4 16.22 1.2
1 -7 -3 132.82 4.85
-1 7 3 136.01 5.06
-1 7 3 131.74 5.12
1 -7 -2 1.42 0.51
-1 7 2 1.47 0.56
-1 7 2 1.88 0.61
1 -7 -1 20.12 1.71
-1 7 1 22.9 1.6
-1 7 1 24.52 1.62
1 -7 -1 21.05 1.45
1 -7 0 98.9 4.39
-1 7 -1 23.62 1.63
1 -7 1 25.69 1.94
-1 7 -1 22.99 2.11
-1 7 -1 26.21 1.48
-1 7 -2 2.3 0.58
-1 7 -2 1.84 0.42
-1 7 -2 1.99 0.87
-1 7 -2 1.83 0.58
1 -7 2 0.68 0.66
1 -7 3 5.66 1.03
-1 7 -3 5.29 0.79
-1 7 -3 5.72 1.17
-1 7 -3 4.69 0.48
-1 7 -3 5.12 0.76
-1 7 -4 13.07 1.14
-1 7 -4 9.33 0.97
-1 7 -4 10.16 1.37
1 -7 4 8.74 1.27
-1 7 -5 22.13 1.51
1 -7 5 22.37 1.97
-1 7 -5 21.52 1.53
-1 7 -6 43.39 2.24
-1 7 -6 39.05 1.98
-1 7 -6 46.14 2.34
1 -7 6 45.26 2.65
1 -7 6 42.26 2.81
-1 7 -7 38.21 2.14
-1 7 -7 46.75 2.36
1 -7 7 41.89 2.75
-1 7 -7 38.42 2.1
1 -7 7 39.27 2.8
-1 7 -8 66.69 2.95
-1 7 -8 58.82 2.89
1 -7 8 62.44 3.64
-1 7 -8 59.22 2.95
1 -7 8 66.63 3.89
1 -7 9 0.7 1.04
-1 7 -9 0.41 0.65
1 -7 9 0.25 0.81
-1 7 -9 0.64 0.57
-1 7 -9 1.19 0.53
-1 7 -9 0.85 0.54
-1 7 -10 9.71 1.15
-1 7 -10 13.27 1.48
1 -7 10 12.91 1.91
-1 7 -10 11.38 1.13
-1 7 -10 11.88 1.3
1 -7 10 12.23 1.74
1 -7 11 108.06 5.57
-1 7 -11 110.43 4.84
-1 7 -11 97.77 4.26
1 -7 11 99.12 5.51
-1 7 -11 106.94 4.16
1 -7 12 0.31 1.1
-1 7 -12 -0.13 0.56
-1 7 -12 0.6 0.85
1 -7 12 -0.29 1.03
-1 7 -13 0.45 0.84
1 -7 13 0.68 1.35
1 -7 14 14.07 2.57
-1 7 -14 17.39 2.11
1 -7 15 5.65 1.91
-1 6 11 0.97 1.29
-1 6 10 36.57 2.29
-1 6 10 35.54 3.14
-1 6 9 2.98 0.64
-1 6 9 2.73 0.76
-1 6 9 2.7 1.17
-1 6 8 12.22 1.18
-1 6 8 12.85 1.84
-1 6 8 13.81 0.97
-1 6 8 13.41 1.12
-1 6 7 0.54 0.42
-1 6 7 1.45 0.5
-1 6 7 1.7 0.55
-1 6 7 2.34 1
-1 6 6 8.19 0.92
-1 6 6 8.91 0.87
-1 6 6 9.09 0.9
-1 6 6 7.83 1.34
-1 6 5 28.33 1.6
-1 6 5 29.28 1.6
-1 6 5 23.68 1.58
-1 6 4 15.65 1.16
-1 6 4 16.46 1.24
1 -6 -4 13.02 1.06
-1 6 3 22.48 1.42
-1 6 3 20.49 1.41
-1 6 2 35.14 1.93
-1 6 2 34.73 1.72
-1 6 2 36.18 1.9
1 -6 -1 8.99 1.05
-1 6 1 7.81 0.75
-1 6 1 7.24 0.84
1 -6 0 10.81 1.14
-1 6 0 7.93 1.2
-1 6 0 9.53 0.93
-1 6 -1 17.15 1.23
1 -6 1 13.02 0.72
-1 6 -1 15.55 1.17
-1 6 -1 16.8 1.59
1 -6 1 16.07 1.43
-1 6 -1 17.14 1.03
-1 6 -2 151.46 5.42
-1 6 -2 145.03 6.03
1 -6 2 149.08 5.89
-1 6 -2 148.78 4.75
-1 6 -2 158.65 5.44
-1 6 -3 141.07 5.7
1 -6 3 138.81 5.54
-1 6 -3 134.72 4.93
-1 6 -3 127.52 4.9
-1 6 -4 9.97 1.28
-1 6 -4 11.23 0.97
-1 6 -4 10.61 0.97
1 -6 4 8.03 1.17
1 -6 4 9.59 1
-1 6 -5 310.18 9.98
1 -6 5 308.62 10.82
1 -6 5 306.27 10.31
-1 6 -5 313.83 10.07
-1 6 -5 308.76 9.8
-1 6 -6 0.1 0.41
-1 6 -6 0.09 0.42
1 -6 6 0.15 0.6
-1 6 -6 0.46 0.36
1 -6 6 -0.38 0.78
1 -6 7 3.89 0.94
-1 6 -7 2.02 0.6
1 -6 7 2.18 0.87
-1 6 -7 2.32 0.56
-1 6 -7 1.34 0.46
-1 6 -8 99.88 3.99
-1 6 -8 103.87 4.23
-1 6 -8 100.76 3.88
1 -6 8 99.34 4.69
1 -6 8 95.45 4.8
-1 6 -9 138.68 5.14
1 -6 9 145.13 6.27
-1 6 -9 134.15 4.98
1 -6 9 141.22 6.1
1 -6 10 2.6 1.03
-1 6 -10 1 0.57
-1 6 -10 1.45 0.52
1 -6 10 2.09 0.95
1 -6 11 0.26 0.89
-1 6 -11 0.53 0.44
-1 6 -11 0.34 0.53
-1 6 -12 1.17 0.56
1 -6 12 2.29 1.17
-1 6 -12 2.11 0.79
-1 6 -13 10.27 1.35
1 -6 13 11.07 1.96
1 -6 14 0.35 1.23
-1 6 -14 0.58 0.83
1 -6 15 9.2 2.11
1 -5 -11 4.85 0.98
-1 5 10 6.71 1.47
1 -5 -10 6.67 1.01
-1 5 10 5.67 0.96
-1 5 10 6.2 1.5
-1 5 9 3.34 1.11
-1 5 9 2.63 0.55
-1 5 9 3 0.7
-1 5 9 3.06 0.39
-1 5 8 0.05 0.31
-1 5 8 -0.22 0.82
-1 5 8 -0.22 0.43
-1 5 8 -0.08 0.38
-1 5 8 -0.43 0.58
-1 5 7 1.8 0.8
-1 5 7 2.79 0.48
-1 5 7 1.47 0.73
-1 5 7 2.58 0.63
-1 5 7 1.88 0.51
-1 5 6 100.27 3.82
-1 5 6 97.13 4.16
-1 5 6 106.42 3.91
-1 5 6 101.76 3.69
-1 5 5 28.39 1.59
-1 5 5 28.41 1.53
-1 5 4 58.98 2.53
-1 5 4 55.68 2.41
-1 5 3 47.98 2.23
-1 5 3 47.93 2.2
-1 5 3 49.19 2.06
-1 5 2 9.32 0.74
-1 5 2 8.26 0.8
-1 5 1 19.01 1.6
1 -5 -1 22.49 1.49
-1 5 1 18.57 1.11
-1 5 0 25.72 1.45
1 -5 0 23.83 1.6
-1 5 0 23.26 1.76
1 -5 1 35.65 1.51
-1 5 -1 37.6 1.49
-1 5 -1 41.94 2.35
-1 5 -1 37.69 1.85
-1 5 -1 41.78 1.93
1 -5 1 34.08 2.07
-1 5 -2 21.83 1.31
-1 5 -2 20.81 1.67
-1 5 -2 19.89 1.27
1 -5 2 21.1 1.58
-1 5 -3 197.41 6.61
1 -5 3 204.05 7.21
1 -5 3 195.25 6.43
-1 5 -3 193.18 6.58
-1 5 -3 200.34 7.2
-1 5 -4 14.6 1.04
-1 5 -4 16.82 1.11
1 -5 4 13.28 1.12
-1 5 -4 16.88 1.14
-1 5 -5 99.45 4.11
1 -5 5 113.79 4.44
-1 5 -5 120.64 4.23
-1 5 -5 119.57 4.15
-1 5 -6 0.16 0.33
1 -5 6 0.5 0.54
-1 5 -6 0.48 0.43
-1 5 -6 0.78 0.36
-1 5 -7 4.63 0.75
1 -5 7 3.52 0.85
-1 5 -7 3.03 0.56
1 -5 7 3.31 0.82
-1 5 -7 3.08 0.51
1 -5 8 6.73 1.04
-1 5 -8 5.48 0.71
-1 5 -8 6.32 0.7
-1 5 -9 50.63 2.59
-1 5 -9 55.49 2.5
1 -5 9 49.99 3.06
-1 5 -9 51.46 2.26
1 -5 10 1.06 0.9
-1 5 -10 0.26 0.53
-1 5 -10 0.22 0.35
1 -5 10 0.58 0.33
1 -5 10 0.61 0.33
-1 5 -10 0.8 0.48
-1 5 -11 7.53 0.86
-1 5 -11 5.73 0.7
1 -5 11 9.52 1.61
-1 5 -11 6.63 0.99
-1 5 -12 6.93 1.08
1 -5 12 5.3 1.4
-1 5 -12 8.2 0.97
1 -5 13 4.76 1.45
-1 5 -13 4.45 1.03
1 -5 14 1 1.33
-1 5 -14 0.39 0.61
1 -5 15 1.1 1.54
-1 4 12 43.05 3.65
1 -4 -11 6.08 0.91
1 -4 -11 6.42 0.93
-1 4 11 7.07 1.49
-1 4 11 5.46 1.55
1 -4 -10 1.4 0.79
1 -4 -10 1.19 0.56
-1 4 10 1.12 0.82
-1 4 10 1.64 1.07
1 -4 -10 0.88 0.19
-1 4 9 4.25 0.93
-1 4 9 2.91 0.43
1 -4 -9 3.51 0.68
-1 4 9 3.37 0.74
-1 4 9 3.7 1.03
1 -4 -9 4.07 0.51
1 -4 -9 2.52 0.81
-1 4 8 20.81 1.44
-1 4 8 18.8 1.56
-1 4 8 19.99 1.16
1 -4 -8 22.72 1.7
-1 4 8 22.47 1.9
-1 4 8 20.27 0.93
-1 4 7 8.91 0.64
-1 4 7 9.43 1.07
-1 4 7 8.36 0.75
1 -4 -7 10.88 1.17
-1 4 7 8.72 0.92
1 -4 -6 0.55 0.53
-1 4 6 0.27 0.32
-1 4 6 -0.11 0.56
-1 4 6 0.67 0.3
1 -4 -5 37.65 2
-1 4 5 43.11 1.79
-1 4 5 41.19 2.12
-1 4 5 38.81 1.83
-1 4 4 48.22 1.99
-1 4 4 50.27 2.11
-1 4 4 48.11 1.99
-1 4 4 43.01 2.23
-1 4 3 198.14 6.12
-1 4 3 186.88 6.3
-1 4 3 189.03 6.2
-1 4 2 181.64 6.06
-1 4 2 194.9 5.87
-1 4 2 170.18 6.55
-1 4 1 196.68 7.15
-1 4 1 203.53 6.69
-1 4 1 210.3 6.41
1 -4 -1 207.81 6.93
-1 4 0 373.39 11.5
1 -4 0 378.07 11.78
-1 4 0 371.91 11.45
-1 4 0 368.01 12.01
1 -4 1 52.94 2.47
-1 4 -1 53.67 2.21
-1 4 -1 48.27 2.47
1 -4 1 51.78 2.01
-1 4 -1 52.54 2.19
-1 4 -2 240.41 7.67
-1 4 -2 245.93 8.23
1 -4 2 233.86 7.31
1 -4 2 243.69 8.13
-1 4 -2 247.6 7.68
-1 4 -3 435.36 13.13
-1 4 -3 419.07 13.09
1 -4 3 418.55 12.99
-1 4 -3 444.24 13.13
1 -4 3 439.76 13.69
1 -4 4 198.16 6.5
-1 4 -4 199.96 6.4
-1 4 -4 199.18 6.46
-1 4 -4 189.72 6.51
-1 4 -5 0.83 0.32
-1 4 -5 1.13 0.47
1 -4 5 1.8 0.51
-1 4 -5 1.43 0.36
1 -4 6 18.49 1.38
-1 4 -6 18.42 1.16
-1 4 -6 18.78 1.1
-1 4 -6 18.29 1.19
1 -4 7 19.5 1.52
-1 4 -7 19.23 1.21
-1 4 -7 17.55 1.24
-1 4 -7 17.59 1.08
-1 4 -8 109.19 3.98
1 -4 8 112.77 4.9
-1 4 -8 121.81 4.26
-1 4 -8 116.47 4.45
1 -4 9 5.73 0.47
1 -4 9 4.93 0.47
-1 4 -9 4.97 0.56
1 -4 9 4.31 0.94
-1 4 -9 4.71 0.78
-1 4 -9 5.45 0.72
1 -4 10 7 0.49
-1 4 -10 8.1 0.84
1 -4 10 6.17 0.47
1 -4 10 8.18 1.34
-1 4 -10 5.78 0.91
-1 4 -10 6.45 0.62
-1 4 -11 16.33 1.49
-1 4 -11 15.61 1.18
1 -4 11 13.44 1.71
-1 4 -12 0.66 0.71
1 -4 12 1.56 0.97
-1 4 -13 5.66 1.06
1 -4 13 6.12 1.51
1 -4 14 6.8 1.72
-1 4 -14 4.64 1.05
1 -4 15 0.73 1.25
-1 3 12 5.27 1.59
1 -3 -12 5.27 0.85
1 -3 -11 0.32 0.48
-1 3 11 0.59 1.02
1 -3 -11 -0.18 0.62
1 -3 -11 0.1 0.46
1 -3 -10 0.42 0.47
-1 3 10 0.59 0.67
1 -3 -10 0.73 0.49
-1 3 10 1.58 1.06
1 -3 -10 0.47 0.6
1 -3 -9 -0.03 0.23
1 -3 -9 0.28 0.56
-1 3 9 0.23 0.43
1 -3 -9 -0.1 0.43
-1 3 9 0.27 0.58
-1 3 8 0.1 0.46
-1 3 8 0.27 0.29
1 -3 -8 0.39 0.41
1 -3 -8 0.12 0.5
1 -3 -8 0.1 0.27
-1 3 8 0.49 0.55
-1 3 7 4.67 0.36
-1 3 7 3.57 0.7
1 -3 -7 4.32 0.74
-1 3 7 3.64 0.48
-1 3 7 5.59 0.7
-1 3 6 22.19 1.02
-1 3 6 23.66 1.19
1 -3 -6 25.07 1.5
-1 3 6 22.93 1.51
-1 3 5 1.72 0.38
-1 3 5 2.58 0.34
1 -3 -5 2.29 0.51
-1 3 5 2.45 0.54
-1 3 5 2.09 0.38
-1 3 4 4.3 0.48
-1 3 4 3.88 0.42
-1 3 4 4.02 0.46
1 -3 -4 4.06 0.56
-1 3 4 3.12 0.54
-1 3 3 861.24 25.26
-1 3 3 892.03 24.82
-1 3 3 860.75 24.91
1 -3 -3 852.24 24.96
-1 3 2 132.58 4.17
-1 3 2 134.06 4.78
-1 3 1 484.75 14.8
1 -3 -1 501.62 15.01
-1 3 1 498.24 14.9
-1 3 1 503.8 15.25
1 -3 -1 504.98 15.06
-1 3 0 238.77 7.53
-1 3 0 252.4 7.88
-1 3 0 245.18 7.51
1 -3 0 226.64 7.73
1 -3 1 338.57 10.19
-1 3 -1 331.89 10.17
-1 3 -1 346.77 10.19
1 -3 1 311.02 10.42
-1 3 -1 332.86 10.52
1 -3 2 150.24 5.34
-1 3 -2 159.94 5.38
1 -3 2 152.07 4.72
1 -3 2 152.45 4.94
-1 3 -2 154.9 5.01
-1 3 -2 153.61 5.02
-1 3 -3 1.7 0.33
1 -3 3 2.1 0.58
-1 3 -3 0.98 0.29
-1 3 -3 1.75 0.33
1 -3 4 0.12 0.26
-1 3 -4 0.1 0.23
-1 3 -4 0.05 0.22
-1 3 -4 0.12 0.23
-1 3 -5 16.32 1.06
-1 3 -5 17.93 0.98
-1 3 -5 18.91 1.08
-1 3 -6 18.53 1.18
-1 3 -6 18.31 1.1
-1 3 -6 17.04 0.98
-1 3 -7 202.8 6.28
1 -3 7 200.55 6.42
-1 3 -7 189.01 6.68
-1 3 -7 193.53 6.48
-1 3 -8 39.78 1.88
-1 3 -8 41.58 2.17
-1 3 -8 40.94 1.69
1 -3 8 39.04 1.43
1 -3 8 39.8 1.42
1 -3 9 4.83 0.29
-1 3 -9 5.06 0.82
-1 3 -9 3.97 0.61
-1 3 -9 5.19 0.5
1 -3 10 1.51 0.32
-1 3 -10 1.22 0.56
-1 3 -11 7.65 1.09
-1 3 -12 106.97 4.78
1 -3 13 1.48 1.18
-1 3 -13 0.96 0.73
1 -3 14 1.64 1.29
-1 3 -14 1.69 0.85
-1 2 13 3.23 1.59
1 -2 -12 2.55 0.62
-1 2 12 3.68 0.92
1 -2 -12 2.16 0.57
-1 2 12 2.89 1.37
1 -2 -12 2.88 0.85
1 -2 -11 -0.19 0.48
1 -2 -11 0.37 0.51
1 -2 -11 -0.16 0.68
-1 2 11 0.58 1.16
-1 2 11 0.15 0.7
1 -2 -10 7.69 1.12
1 -2 -10 6.78 0.84
1 -2 -10 7.29 0.81
-1 2 10 6.67 1.35
-1 2 10 7.17 0.99
-1 2 9 10.88 1.52
-1 2 9 11.03 1.15
1 -2 -9 10.76 1.15
1 -2 -8 91.92 2.99
-1 2 8 93.7 3.84
1 -2 -8 92.33 3.81
1 -2 -7 56.85 2.58
-1 2 7 55.39 2.59
1 -2 -7 56.99 2.08
-1 2 6 217.42 6.53
-1 2 6 228.5 6.83
1 -2 -6 226.92 7.31
-1 2 6 216.69 7.36
1 -2 -5 264.25 8.32
-1 2 5 277.71 8.23
-1 2 5 247.84 8.4
-1 2 5 262.85 7.8
-1 2 5 260.06 8.03
-1 2 4 75.88 2.8
-1 2 4 85.1 2.67
-1 2 4 81.71 2.84
1 -2 -4 84.68 2.94
-1 2 4 82.7 3.13
1 -2 -4 76.37 2.99
-1 2 3 701.47 21.15
1 -2 -3 696.08 20.83
1 -2 -3 746.13 21.09
1 -2 -2 246.67 7.42
-1 2 2 238.19 7.43
-1 2 2 246.55 7.65
-1 2 2 250.8 7.64
1 -2 -2 237.56 7.23
1 -2 -2 240.04 7.58
1 -2 -1 777.6 22.45
1 -2 -1 765.7 22.49
1 -2 -1 797.48 22.56
-1 2 1 786.85 22.51
-1 2 1 769.09 22.67
-1 2 1 760.38 22.43
1 -2 -1 718.33 22.64
1 -2 0 220.83 6.76
-1 2 0 212.65 6.75
1 -2 0 225.32 6.87
-1 2 0 225.05 6.79
-1 2 0 216.44 6.92
1 -2 1 504.68 15.52
-1 2 -1 527.62 15.32
-1 2 -1 500.84 15.03
-1 2 -1 541.69 15.32
1 -2 1 525.72 15.49
-1 2 -1 534.72 15.51
-1 2 -2 53.64 2.04
-1 2 -2 56.96 1.93
-1 2 -2 57.26 2.31
1 -2 2 56.5 2.19
1 -2 2 55.01 2.24
1 -2 2 55.52 2.04
-1 2 -2 54.44 2.07
1 -2 3 32.65 1.35
-1 2 -3 32.8 1.38
1 -2 3 31.19 1.4
-1 2 -3 32.5 1.39
-1 2 -3 33.61 1.44
1 -2 3 35.12 1.42
-1 2 -3 33.67 1.67
1 -2 4 0.19 0.25
-1 2 -4 0.22 0.2
1 -2 4 0.05 0.24
-1 2 -4 0.05 0.24
-1 2 -4 0.21 0.2
-1 2 -4 0.08 0.37
-1 2 -5 541.29 16.48
-1 2 -5 569.09 16.82
-1 2 -5 571.56 16.67
1 -2 6 27.67 0.97
1 -2 6 29.43 1.37
-1 2 -6 29.24 1.43
1 -2 6 27.81 0.98
-1 2 -6 31.61 1.29
-1 2 -6 30.71 1.6
-1 2 -7 20.27 0.99
-1 2 -7 21.6 1.21
-1 2 -7 22.65 1.43
1 -2 7 21.76 1.04
1 -2 7 20.13 1.11
1 -2 8 31.53 1.35
-1 2 -8 34.91 1.94
1 -2 8 35.19 1.56
-1 2 -9 10 1.08
1 -2 9 10.88 0.78
1 -2 9 9.28 0.54
1 -2 10 33.27 1.58
-1 2 -10 36.16 2.22
1 -2 11 28.16 1.42
-1 2 -11 26.64 2.02
-1 2 -12 40.29 2.65
-1 2 -13 0.2 0.71
-1 2 -14 1.78 0.89
1 -2 14 1.69 1.17
1 -1 -14 0.42 0.86
1 -1 -13 14.43 1.58
-1 1 13 11.01 2.13
-1 1 12 1.27 1.16
-1 1 12 0.76 0.66
1 -1 -12 0.85 0.71
1 -1 -11 2.27 0.74
-1 1 11 4.27 0.89
1 -1 -10 54.15 2.85
-1 1 10 58.91 2.83
-1 1 9 225.01 7.75
1 -1 -9 226.43 7.81
-1 1 8 23.95 1.58
1 -1 -8 26.35 1.6
1 -1 -7 303.13 8.82
1 -1 -7 293.15 9.5
1 -1 -7 292.08 9.35
1 -1 -7 297.8 9.37
-1 1 7 286.4 9.54
1 -1 -6 37.15 1.67
1 -1 -6 35.3 1.35
-1 1 6 34.8 1.75
1 -1 -6 31.44 1.59
1 -1 -6 31.73 1.62
-1 1 5 1087.88 32.95
1 -1 -5 1134.7 32
1 -1 -5 1095.48 31.89
1 -1 -5 1084.5 32.24
-1 1 5 1091.42 32.38
1 -1 -4 123.97 3.77
-1 1 4 120.19 4.32
-1 1 4 122.02 3.95
1 -1 -4 112.26 3.59
-1 1 4 104.03 3.41
-1 1 3 7.18 0.63
1 -1 -3 7.47 0.49
1 -1 -3 6.82 0.46
1 -1 -3 6.98 0.39
-1 1 3 7.19 0.74
1 -1 -3 6.51 0.57
-1 1 2 1155.23 33.33
1 -1 -2 1177.77 33.33
-1 1 2 1180.68 33.66
-1 1 2 1182.02 33.8
1 -1 -2 1142.88 33.25
1 -1 -2 1177.28 33.45
-1 1 2 1088.76 33.47
1 -1 -1 242.8 7.35
-1 1 1 237.25 7.36
-1 1 1 243.05 7.67
-1 1 1 243.79 7.54
-1 1 1 258.79 7.46
1 -1 -1 236.9 7.42
1 -1 -1 252.21 7.54
-1 1 1 250.32 7.34
1 -1 0 341.8 9.86
-1 1 0 345.49 9.96
-1 1 0 349.82 9.99
-1 1 0 305.53 9.86
-1 1 -1 118.75 4.06
-1 1 -1 114.19 3.71
-1 1 -1 117.89 3.57
1 -1 1 111.09 3.54
-1 1 -1 116.16 3.71
1 -1 1 117.37 4.01
-1 1 -2 292.61 8.91
-1 1 -2 302.26 8.99
1 -1 2 294.38 8.89
-1 1 -2 307.53 8.94
1 -1 2 290.13 8.89
-1 1 -2 298.21 9.33
1 -1 2 298.14 9.22
-1 1 -3 24.95 1.06
1 -1 3 23.41 1.11
1 -1 3 25.07 0.88
-1 1 -3 22.81 1.14
1 -1 3 21.44 0.99
-1 1 -3 21.93 1.33
1 -1 3 23.92 1.07
-1 1 -3 24.57 1.13
1 -1 3 24.57 1.12
-1 1 -4 313.45 9.76
1 -1 4 317.76 9.49
-1 1 -5 580.51 17.34
1 -1 5 573.28 16.79
1 -1 5 573.08 16.87
1 -1 6 30.53 1.32
1 -1 6 28.08 1.08
1 -1 6 25.31 1.11
-1 1 -6 28.16 1.58
-1 1 -7 2.6 0.59
1 -1 7 2.33 0.37
1 -1 7 2 0.25
1 -1 8 26.61 1.29
-1 1 -8 27.85 1.77
1 -1 8 28.46 1.68
-1 1 -9 43.9 2.48
1 -1 9 44.72 2.37
1 -1 9 44.23 1.83
-1 1 -10 19.48 1.63
1 -1 10 20.6 1.57
1 -1 10 17.74 1.03
-1 1 -11 39.18 2.54
1 -1 11 39.24 1.68
-1 1 -12 1.55 0.86
-1 1 -13 -0.21 0.76
-1 1 -14 2.12 0.99
1 0 -15 0.22 0.74
1 0 -14 2.19 0.94
1 0 -13 5.4 1.08
1 0 -12 11.77 1.36
-1 0 12 8.92 1.16
1 0 -11 113.57 4.68
-1 0 11 105.31 5.66
-1 0 11 111.55 4.54
-1 0 10 2.86 0.7
-1 0 10 4.17 1.14
1 0 -10 3.87 0.81
1 0 -9 16.12 1.26
-1 0 9 11.48 1.49
-1 0 9 12.46 1.1
1 0 -9 11.94 0.92
1 0 -8 13.01 0.94
1 0 -8 12.94 1.08
-1 0 8 14.86 1.12
-1 0 8 15.31 1.61
1 0 -8 15.37 1.01
1 0 -7 1.36 0.18
1 0 -7 1.06 0.38
1 0 -7 1.33 0.36
-1 0 7 0.49 0.54
1 0 -7 0.56 0.38
-1 0 7 0.96 0.39
1 0 -6 110.51 3.81
1 0 -6 105.24 3.74
1 0 -6 112.57 3.32
-1 0 6 96.87 3.75
1 0 -6 99.9 3.3
1 0 -6 107.7 3.75
1 0 -5 1.18 0.23
1 0 -5 0.66 0.28
-1 0 5 1.06 0.48
-1 0 5 0.84 0.31
1 0 -5 1.4 0.23
1 0 -4 12.83 0.83
1 0 -4 13.66 0.53
-1 0 4 13.13 1.14
1 0 -4 14.32 0.81
-1 0 4 14.99 0.89
1 0 -4 13.97 0.7
1 0 -4 13.75 0.85
1 0 -3 193.81 6.15
1 0 -3 215.78 6.66
-1 0 3 200 6.32
-1 0 3 194.44 6.8
1 0 -3 204.3 6.15
1 0 -3 203.36 6.31
-1 0 3 196.98 6.19
1 0 -3 208.77 6.32
-1 0 3 201.2 6.31
1 0 -2 287.65 9
-1 0 2 278.51 8.59
-1 0 2 266.95 8.62
1 0 -2 289.98 8.56
-1 0 2 288.48 8.59
-1 0 2 295.65 8.61
-1 0 2 286.59 9.14
1 0 -1 44.45 1.92
-1 0 1 37.87 1.46
-1 0 1 39.34 1.49
-1 0 1 37.34 1.46
-1 0 1 38.74 1.5
-1 0 0 1815.37 53.67
-1 0 0 1879.93 53.65
-1 0 0 1902.61 53.75
-1 0 -1 24.38 0.96
1 0 1 24.99 1.05
-1 0 -1 24.17 1.09
-1 0 -1 24.7 0.96
1 0 1 25.23 1.06
1 0 1 24.09 0.95
-1 0 -1 23.59 1.32
1 0 1 23.58 0.95
-1 0 -1 23.9 1.07
1 0 2 1366.46 40.16
-1 0 -2 1326.87 40.46
1 0 2 1439.39 40.39
1 0 2 1418.51 40.18
-1 0 -2 1403.5 40.19
-1 0 -2 1423.91 40.92
-1 0 -2 1387.93 40.19
-1 0 -2 1445.06 40.55
-1 0 -3 538.51 15.84
-1 0 -3 503.97 15.49
1 0 3 516.11 15.17
1 0 4 444.07 13.25
-1 0 -4 462.31 13.74
1 0 5 2.62 0.28
-1 0 -5 2.01 0.46
1 0 5 1.53 0.33
1 0 5 2.09 0.26
1 0 6 71.41 2.33
-1 0 -6 69.67 3.06
1 0 6 72.55 2.62
-1 0 -7 45.67 2.38
1 0 7 46.6 1.54
1 0 7 47.82 1.92
-1 0 -8 19.41 1.51
1 0 8 20.73 1.08
1 0 8 19.63 1.4
1 0 9 19.31 1.46
1 0 9 18.72 1.01
-1 0 -9 16.11 1.5
1 0 10 37.23 1.59
1 0 10 36.73 2.24
-1 0 -10 37.07 2.44
1 0 11 9.08 0.67
-1 0 -11 7.71 1.24
-1 0 -12 7.68 1.3
1 0 12 7.77 0.56
-1 0 -13 18.87 2.08
1 1 -15 0.42 0.74
-1 -1 14 3.58 1.56
1 1 -14 3.24 0.98
-1 -1 13 0.36 1.26
1 1 -13 0.68 0.74
-1 -1 13 0.44 0.71
1 1 -12 14.6 1.45
-1 -1 12 13.94 1.32
-1 -1 12 12.05 1.98
1 1 -11 326.94 10.98
-1 -1 11 330.32 10.83
-1 -1 11 329.04 12.45
1 1 -10 47.02 2.49
-1 -1 10 49.51 3.35
-1 -1 9 1.55 0.76
1 1 -9 2.79 0.47
1 1 -9 2.76 0.59
1 1 -9 2.62 0.47
1 1 -8 92.69 2.99
1 1 -8 102.23 3.82
1 1 -8 99.87 3.51
-1 -1 8 101.98 4.66
1 1 -8 95.72 3.48
-1 -1 7 117.39 3.67
1 1 -7 114.91 4.2
1 1 -7 109.39 3.61
-1 -1 7 120.22 4.05
1 1 -7 116.92 4.02
1 1 -7 113.77 3.99
1 1 -6 2.9 0.44
1 1 -6 3.05 0.47
-1 -1 6 2.51 0.41
-1 -1 6 2.93 0.45
-1 -1 6 2.75 0.34
1 1 -6 2.5 0.42
-1 -1 5 63.1 2.23
-1 -1 5 66 2.41
-1 -1 5 62.2 2.43
1 1 -4 682.17 20.71
-1 -1 4 705.08 20.71
-1 -1 4 708.05 20.71
1 1 -4 712.74 20.72
-1 -1 4 695.73 20.58
1 1 -4 731.74 21.3
1 1 -3 46.56 1.76
1 1 -3 41.4 2.15
1 1 -3 44.57 1.74
-1 -1 3 42.27 1.67
-1 -1 3 43.72 1.72
-1 -1 3 43.6 1.74
1 1 -2 1267.08 36.48
-1 -1 2 1289.23 36.55
-1 -1 2 1230.34 36.54
1 1 -2 1302.84 37.27
-1 -1 2 1258.29 36.53
-1 -1 2 1264.05 36.42
-1 -1 2 1238.91 36.47
-1 -1 1 1311.79 39.17
-1 -1 1 1358.67 39.16
1 1 -1 1349.37 39.88
-1 -1 1 1373.61 39.21
-1 -1 1 1359.83 39.07
-1 -1 1 1335.38 39.02
1 1 -1 1362.14 39.1
1 1 -1 1373.03 38.97
-1 -1 0 322.55 9.37
-1 -1 0 309.96 9.27
1 1 0 294.02 9.08
1 1 0 319.56 9.25
1 1 0 290.25 9.23
-1 -1 0 329.59 9.28
-1 -1 0 317.51 9.74
1 1 0 325.73 9.27
-1 -1 -1 508.87 14.37
-1 -1 -1 472.47 14.53
-1 -1 -1 479.11 14.38
-1 -1 -1 506.07 14.97
-1 -1 -2 94.46 3.19
-1 -1 -2 95.81 3.62
-1 -1 -2 97.12 3.45
-1 -1 -3 25.95 1.55
-1 -1 -3 25.98 1.44
-1 -1 -4 667.2 19.97
-1 -1 -4 716.89 20.58
-1 -1 -5 49.03 2.35
-1 -1 -5 49.98 1.85
-1 -1 -6 6.36 0.8
-1 -1 -6 5.6 0.45
1 1 7 0.58 0.31
-1 -1 -7 1.14 0.17
-1 -1 -7 0.51 0.48
1 1 7 0.84 0.4
1 1 7 0.72 0.19
-1 -1 -8 55.86 3.03
1 1 8 64.41 2.92
1 1 8 62.34 2.39
-1 -1 -9 11.63 1.3
1 1 9 11.06 0.79
-1 -1 -10 4.85 0.99
1 1 10 5.48 0.55
-1 -1 -11 24.74 2.11
1 1 11 23.3 1.11
1 1 11 21.27 1.78
-1 -1 -12 2.66 0.95
1 1 12 3.66 0.38
-1 -1 -13 2.2 1.06
1 2 -15 -0.2 0.77
-1 -2 14 3.59 1.56
1 2 -14 3.08 0.9
-1 -2 13 24.88 1.9
1 2 -13 28.69 2.08
-1 -2 13 27.25 2.94
1 2 -12 46.82 2.66
-1 -2 12 42.41 3.49
1 2 -11 6.95 0.99
-1 -2 11 6.02 1.41
1 2 -10 4.02 0.28
1 2 -10 3.82 0.71
-1 -2 10 4.1 1.12
-1 -2 9 5.67 0.46
-1 -2 9 6.37 0.67
1 2 -9 6.72 0.83
1 2 -9 5.99 0.37
1 2 -9 6.43 0.64
1 2 -9 5.19 0.59
-1 -2 9 6.47 1.19
1 2 -8 0.49 0.32
1 2 -8 0.29 0.39
-1 -2 8 0.36 0.22
-1 -2 8 0.4 0.32
-1 -2 8 0.49 0.34
1 2 -8 0.68 0.18
1 2 -8 0.55 0.3
-1 -2 7 5.81 0.49
1 2 -7 5.7 0.59
-1 -2 7 5.19 0.58
-1 -2 7 5.72 0.6
1 2 -7 4.38 0.52
1 2 -7 4.92 0.4
-1 -2 6 2.48 0.35
-1 -2 6 2.21 0.46
-1 -2 6 3.66 0.47
-1 -2 5 73.16 2.77
1 2 -5 79.38 3.39
-1 -2 5 71.92 2.74
-1 -2 5 75.86 2.63
1 2 -4 1135.37 32.75
1 2 -4 1128.3 33.62
-1 -2 4 1150.6 32.82
1 2 -4 1083.03 32.74
-1 -2 4 1128.25 32.78
-1 -2 3 5418.39 153.89
1 2 -3 5695.07 154.68
-1 -2 3 5285.11 153.65
-1 -2 3 5243.56 153.65
-1 -2 2 9886.2 279.86
-1 -2 2 9334.21 279.66
1 2 -2 9939.4 280.69
1 2 -2 9845.52 279.96
-1 -2 2 9999 279.69
1 2 -1 58.81 2.52
-1 -2 1 59.48 2.29
1 2 -1 63.77 2.39
-1 -2 0 19.84 1.23
-1 -2 0 18.53 0.99
1 2 0 16.23 1.01
1 2 0 16.41 1.11
1 2 1 62.12 2.53
-1 -2 -1 63.8 2.71
1 2 1 70.31 2.68
-1 -2 -2 69.77 2.95
-1 -2 -3 38.49 1.97
-1 -2 -3 39.72 2.1
-1 -2 -4 0.2 0.37
-1 -2 -4 0.33 0.25
-1 -2 -4 0.36 0.5
-1 -2 -5 12.01 1.14
1 2 5 14.15 1.08
-1 -2 -5 10.76 0.73
-1 -2 -6 32.38 2
-1 -2 -6 30.23 1.36
1 2 6 35.11 1.87
-1 -2 -7 125.14 4.12
-1 -2 -7 134.12 5.23
-1 -2 -8 110.57 3.62
-1 -2 -8 117.99 4.98
1 2 8 122.13 4.16
-1 -2 -9 1.96 0.29
1 2 9 1.67 0.42
-1 -2 -9 2.35 0.31
1 2 9 2.2 0.6
-1 -2 -9 1.63 0.77
-1 -2 -10 1.8 0.89
1 2 10 2.03 0.44
1 2 10 1.22 0.7
-1 -2 -11 5.71 1.28
1 2 11 5.37 0.53
-1 -2 -12 24.06 2.3
-1 -3 15 -0.45 1.51
1 3 -15 0.78 0.82
1 3 -14 3.79 0.98
-1 -3 14 4.89 1.56
1 3 -13 44.35 2.7
-1 -3 13 42.61 3.7
1 3 -12 5.47 0.98
-1 -3 12 5 1.48
-1 -3 11 -0.3 0.91
1 3 -11 0.81 0.54
-1 -3 11 0.09 0.38
-1 -3 10 6.1 0.75
-1 -3 10 5.27 0.5
1 3 -10 6.27 0.83
-1 -3 10 5.62 0.68
1 3 -10 4.95 0.44
-1 -3 10 7.11 1.36
-1 -3 9 23.58 1.33
1 3 -9 19.73 1.01
-1 -3 9 20.56 1.28
1 3 -9 22.34 1.52
-1 -3 9 20.31 1.11
-1 -3 9 21.61 2.14
-1 -3 8 119.55 4.11
-1 -3 8 121.68 4.37
-1 -3 8 126.88 4.37
1 3 -8 123.97 4.08
-1 -3 8 115.26 5.62
-1 -3 7 121.43 4.38
-1 -3 7 130.64 4.45
1 3 -6 273.4 9.26
-1 -3 6 270.12 8.46
-1 -3 6 261.54 8.48
-1 -3 5 138.34 4.74
-1 -3 5 146.06 4.78
-1 -3 5 131.12 5.1
1 3 -5 146.39 5.57
1 3 -4 389.4 12.78
-1 -3 4 391.77 11.78
-1 -3 4 404.09 12.29
-1 -3 4 368.9 11.79
-1 -3 4 395.52 13.1
-1 -3 3 559.71 17.93
-1 -3 3 554.98 17.07
1 3 -3 567.54 17.12
1 3 -3 561.77 17.78
1 3 -2 1009.19 28.94
1 3 -2 961.68 29.6
-1 -3 2 948.78 28.82
-1 -3 1 902.71 26.86
1 3 -1 913.32 27.03
-1 -3 0 3.35 0.59
1 3 0 4.4 0.62
-1 -3 0 4.85 0.6
1 3 1 22.28 1.38
-1 -3 -1 19.4 1.38
1 3 2 235 6.89
-1 -3 -2 240.98 7.94
1 3 2 226.43 7.81
1 3 3 2.65 0.57
1 3 3 3 0.29
-1 -3 -3 3.16 0.65
-1 -3 -4 139.53 5.19
1 3 4 126.12 4.09
1 3 4 126.46 4.8
-1 -3 -5 29.53 1.95
-1 -3 -5 33.81 2.23
-1 -3 -5 32.49 1.52
1 3 5 31.56 1.39
-1 -3 -6 315.07 10.96
1 3 6 330.69 9.99
-1 -3 -6 321.95 10
-1 -3 -7 85.83 4
-1 -3 -7 79 2.97
1 3 7 83.85 3.13
1 3 8 1.35 0.47
-1 -3 -8 0.55 0.7
-1 -3 -8 0.81 0.3
1 3 8 0.69 0.5
1 3 9 56.82 2.87
-1 -3 -9 52.78 3.12
-1 -3 -9 47.88 1.72
1 3 9 47.09 1.68
-1 -3 -10 1.75 0.84
-1 -3 -10 3.23 0.43
1 3 10 2.42 0.77
-1 -3 -10 3.67 0.44
-1 -3 -11 1.43 1.02
1 3 11 1.26 0.4
-1 -3 -12 -0.52 0.92
-1 -4 15 5.94 1.99
1 4 -15 9.34 1.39
1 4 -14 0.54 0.69
-1 -4 14 0.42 1.4
-1 -4 13 2.3 1.32
1 4 -13 2.96 0.82
1 4 -12 9.84 1.18
-1 -4 12 6.64 1.64
-1 -4 12 6.17 0.81
1 4 -11 3.21 0.74
-1 -4 11 4.77 0.68
-1 -4 11 7.39 1.66
1 4 -11 5.17 0.53
-1 -4 11 5.13 0.72
-1 -4 11 3.76 0.55
-1 -4 10 7.53 0.83
-1 -4 10 8.48 0.88
1 4 -10 8.32 0.69
-1 -4 10 7.99 0.74
-1 -4 10 6.48 1.49
1 4 -10 7.48 0.97
-1 -4 9 74.69 3
-1 -4 9 72.22 4.36
-1 -4 9 66.76 2.88
1 4 -9 69.43 2.72
-1 -4 8 126.38 6.13
-1 -4 8 131.06 4.73
-1 -4 8 131.69 4.69
-1 -4 7 51.99 2.32
1 4 -7 54.62 2.96
-1 -4 7 49.24 2.3
-1 -4 7 58.38 3.56
-1 -4 6 30.5 1.61
-1 -4 6 30.6 1.62
-1 -4 6 30.24 2.47
1 4 -6 35.09 2.26
-1 -4 5 481.74 14.69
-1 -4 5 474.91 16.11
1 4 -5 470.1 15.64
-1 -4 5 488.64 14.65
1 4 -4 272.49 10.03
1 4 -4 289.49 9.56
-1 -4 4 287.1 9.53
-1 -4 4 294.77 10.42
1 4 -3 57.99 3.21
1 4 -3 59.78 2.88
-1 -4 3 60.73 2.82
1 4 -2 154.66 5.52
-1 -4 2 155.83 5.42
1 4 -2 127.22 5.8
1 4 -2 146.13 5.1
1 4 -1 -0.23 0.5
-1 -4 1 0.19 0.34
1 4 -1 -0.35 0.35
1 4 0 5.81 0.83
-1 -4 0 5.79 0.76
-1 -4 -1 25.52 1.61
1 4 1 23.46 1.65
1 4 2 15.22 1.31
-1 -4 -2 12.74 1.19
1 4 3 0.13 0.53
-1 -4 -3 0.65 0.57
-1 -4 -4 0.15 0.63
1 4 4 0.44 0.56
1 4 4 0.08 0.24
-1 -4 -5 1.14 0.82
1 4 5 1.44 0.67
1 4 5 0.47 0.32
1 4 6 286.18 9.86
1 4 6 278.62 9.32
-1 -4 -6 265.65 8.65
1 4 6 270.09 8.54
-1 -4 -6 268.89 9.83
1 4 7 60.48 3.46
-1 -4 -7 64.31 3.63
1 4 7 67.64 3.18
-1 -4 -7 60.77 2.56
-1 -4 -8 5.63 1.3
-1 -4 -8 5.87 0.66
1 4 8 7.39 1.25
1 4 8 11.81 1.28
1 4 9 2.52 1.03
-1 -4 -9 2.81 0.47
1 4 9 3.85 0.88
1 4 9 2.79 0.4
-1 -4 -9 2.97 1.12
1 4 10 0.25 0.77
-1 -5 15 -0.47 1.68
1 5 -15 -0.2 0.71
1 5 -14 5.09 1.05
-1 -5 14 4.38 1.76
-1 -5 13 7.25 1.88
1 5 -13 4.74 1.01
1 5 -12 0.48 0.59
-1 -5 12 0.37 1.28
-1 -5 12 0.86 0.52
-1 -5 11 8.96 0.96
-1 -5 11 7.87 0.95
-1 -5 11 7.93 1.74
-1 -5 11 3.75 0.63
1 5 -11 6.63 0.99
1 5 -11 7.82 0.76
-1 -5 10 40.92 3.47
1 5 -10 44.27 2.06
-1 -5 10 41.05 2.21
-1 -5 10 50.52 2.35
-1 -5 9 20.43 2.33
-1 -5 9 16.74 1.32
-1 -5 9 19.07 1.36
1 5 -9 19.54 1.26
-1 -5 8 2.61 0.6
-1 -5 8 4.38 1.34
-1 -5 8 4.04 0.64
-1 -5 7 23.18 1.47
-1 -5 7 24.23 2.35
-1 -5 7 23.66 1.46
-1 -5 6 24.11 2.3
-1 -5 5 62.93 3.73
1 5 -4 49.6 2.75
1 5 -3 13.16 1.02
1 5 -3 15.52 1.42
1 5 -2 107.39 3.92
1 5 -2 116.25 4.73
1 5 -1 12.26 1.29
-1 -5 0 171.01 5.04
1 5 0 159.14 6.34
-1 -5 0 158.08 5.96
-1 -5 -1 321.78 10.64
1 5 1 327.66 11.06
-1 -5 -2 232.59 8.12
1 5 2 230.4 8.39
-1 -5 -3 39.5 2.39
1 5 3 37.17 2.43
-1 -5 -4 184.46 7.03
1 5 4 185.27 6.74
1 5 4 179 7.13
-1 -5 -5 201.02 7.81
1 5 5 204.07 8
1 5 5 211.39 7.48
-1 -5 -6 3.37 0.95
1 5 6 3.34 1.03
-1 -5 -6 2.28 0.6
1 5 6 2.58 0.71
1 5 7 0.45 0.77
-1 -5 -7 1.59 0.54
1 5 7 1.05 0.65
-1 -5 -7 0.22 0.84
1 5 8 5.06 1.24
1 5 8 7.67 1.11
-1 -5 -8 6.78 1.35
-1 -5 -8 5.62 0.76
-1 -5 -9 0.68 0.48
1 5 9 1.04 0.92
1 5 9 0.18 0.33
-1 -5 -9 0.27 1.02
-1 -6 15 -0.49 1.75
1 6 -15 1.01 0.77
-1 -6 14 -0.46 1.53
1 6 -14 0.38 0.65
1 6 -13 0.18 0.61
-1 -6 13 0.43 1.51
-1 -6 13 1.1 1.08
-1 -6 12 1.98 1.55
-1 -6 12 1.03 1.12
-1 -6 12 0.49 0.64
1 6 -12 -0.33 0.61
1 6 -11 -0.1 0.44
-1 -6 11 -0.5 0.59
-1 -6 11 0.37 1.11
-1 -6 11 -0.12 0.57
-1 -6 11 -0.24 0.86
1 6 -10 64.24 2.89
-1 -6 10 67.79 3.07
-1 -6 10 63.51 4.55
-1 -6 10 63.71 3.06
-1 -6 9 0.96 1.06
-1 -6 9 0.12 0.48
-1 -6 9 2.04 0.65
1 6 -9 2.37 0.99
-1 -6 8 1.17 0.53
-1 -6 8 2.08 1.22
1 6 -8 1.32 0.82
-1 -6 8 0.77 0.51
1 6 -7 0.38 0.73
-1 -6 7 0.28 0.98
1 6 -6 0.6 0.83
-1 -6 6 0.26 0.84
1 6 -5 30.86 2.41
1 6 -5 25.66 2.05
-1 -6 5 29.67 2.11
1 6 -4 9.84 1.33
-1 -6 4 9.24 1.18
1 6 -4 8.15 1.42
1 6 -4 8.43 0.84
-1 -6 3 1.97 0.71
1 6 -3 3.94 0.55
1 6 -3 4.5 1.27
1 6 -3 3.09 0.84
-1 -6 2 32.73 2.21
1 6 -2 43.8 2.94
1 6 -2 41.9 1.76
1 6 -2 41.79 2.61
1 6 -1 115.33 5.17
-1 -6 1 120.52 4.84
-1 -6 0 317.05 10.4
-1 -6 0 296.82 10.04
1 6 0 310.37 10.87
-1 -6 0 306.96 9.09
1 6 1 39.91 2.39
1 6 1 44.63 2.79
-1 -6 -1 39.84 2.3
-1 -6 -2 108.9 4.69
1 6 2 107.5 5.1
1 6 2 121.56 4.8
-1 -6 -3 29.23 2.1
1 6 3 32.5 2.06
1 6 3 23.43 2.16
1 6 4 27.39 1.93
-1 -6 -4 28.19 2.18
1 6 4 25.72 2.29
1 6 5 9.49 1.47
1 6 5 9.95 1.19
-1 -6 -5 7.44 1.31
1 6 6 -0.31 0.57
-1 -6 -6 -0.22 0.92
1 6 6 1.21 0.81
-1 -6 -7 2.9 0.65
1 6 7 3.87 1.22
1 6 7 1.3 0.69
-1 -6 -7 0.24 0.85
-1 -6 -8 -0.31 0.54
1 6 8 0.85 0.47
1 6 8 0.28 0.92
-1 -7 15 0.51 1.81
-1 -7 14 -3.36 1.83
1 7 -14 0.39 0.64
1 7 -13 1.31 0.8
-1 -7 13 3.58 1.63
-1 -7 12 21.07 1.68
1 7 -12 20.75 1.54
-1 -7 12 20.04 2.96
-1 -7 12 23.06 2.49
1 7 -11 10.82 1.12
-1 -7 11 10.54 2.32
-1 -7 11 9.87 1.13
-1 -7 11 9.36 1.17
-1 -7 11 8.39 1.59
-1 -7 10 0.73 1.22
-1 -7 10 0.52 0.64
1 7 -10 1.11 0.55
-1 -7 10 1.08 0.64
-1 -7 9 4.6 0.87
-1 -7 9 8.15 1.82
1 7 -9 6.21 1.25
-1 -7 9 3.55 0.71
-1 -7 8 3.5 1.46
1 7 -8 4.71 1.15
1 7 -7 0.21 0.82
-1 -7 7 0.88 0.98
1 7 -6 3.94 1.1
-1 -7 5 1.69 0.82
1 7 -5 0.61 0.67
1 7 -5 0.68 0.44
1 7 -5 0.23 0.98
1 7 -4 43.09 3.06
1 7 -4 42.74 1.87
-1 -7 4 53.01 2.96
1 7 -4 42.06 2.9
-1 -7 3 5.56 1.06
1 7 -3 4.87 1.08
1 7 -3 8.64 1.59
1 7 -2 147.71 6.63
-1 -7 2 154.74 6.01
1 7 -2 136.36 6.22
1 7 -1 66.13 3.77
-1 -7 1 62.1 3.28
-1 -7 0 18.87 1.44
1 7 0 18.16 1.89
-1 -7 0 22.88 1.75
-1 -7 0 18.04 0.83
1 7 1 50.93 2.77
-1 -7 -1 46.32 2.56
1 7 1 40.73 2.94
1 7 2 36.66 2.3
1 7 2 34.91 2.69
-1 -7 -2 31.33 2.18
-1 -7 -3 0.34 0.64
1 7 3 0.47 0.58
1 7 3 -0.24 0.82
1 7 4 4.83 1.3
1 7 4 4.53 0.93
1 7 5 0.66 0.66
1 7 5 1.61 1.03
1 7 6 2.27 1.16
1 7 6 1.19 0.83
1 7 7 5.71 1.49
-1 -7 -7 6.17 0.94
-1 -8 15 -0.53 1.66
-1 -8 14 -0.5 1.68
1 8 -14 0.21 0.71
-1 -8 13 3.3 1.89
-1 -8 12 1.44 0.73
-1 -8 12 4.55 1.48
1 8 -12 2.71 0.75
-1 -8 12 1.76 1.84
-1 -8 11 1.68 0.8
-1 -8 11 -0.41 1.38
-1 -8 11 1.48 0.74
1 8 -11 2.09 0.83
-1 -8 11 1.41 1.05
-1 -8 10 1.81 0.73
1 8 -10 1.88 0.67
-1 -8 10 1.15 1.36
-1 -8 10 1.17 0.69
-1 -8 9 0.14 0.57
-1 -8 9 -1.07 1.3
1 8 -9 -0.44 0.87
-1 -8 9 -0.27 0.53
1 8 -8 40.18 2.84
-1 -8 8 36 3.25
1 8 -7 38.61 2.86
1 8 -6 25.42 1.46
1 8 -6 26.66 2.42
1 8 -6 25.34 2.29
1 8 -5 14.99 1.83
1 8 -5 14.64 1.94
1 8 -5 16.4 0.9
-1 -8 5 13.74 1.66
1 8 -4 2.16 1
1 8 -4 2.79 1.27
-1 -8 4 2.6 0.9
1 8 -3 25.3 2.54
-1 -8 3 26.08 2.13
1 8 -3 30.26 2.51
-1 -8 2 7.63 1.21
1 8 -2 5.18 1.48
1 8 -2 4.79 1.26
1 8 -1 7.42 1.41
-1 -8 1 8.95 0.66
-1 -8 1 6.93 1.15
-1 -8 0 17.78 0.82
1 8 0 18.46 2.09
1 8 1 0.7 0.67
1 8 1 2.33 1.04
1 8 2 0.17 0.54
1 8 2 -0.27 0.94
1 8 3 5.13 1.01
1 8 3 5.3 1.41
1 8 4 0.59 1.01
1 8 4 -0.17 0.7
1 8 5 0.62 0.97
1 8 5 1.59 0.82
1 8 6 2.3 1.32
1 8 7 24.78 1.77
-1 -8 -7 25.27 1.82
-1 -9 14 3.14 1.75
-1 -9 13 1.96 1.74
1 9 -12 1.73 0.76
-1 -9 12 1.38 1.67
-1 -9 12 1.19 0.71
-1 -9 11 1.1 0.8
-1 -9 11 0.49 0.69
-1 -9 11 3.85 1.89
1 9 -11 2.1 0.9
1 9 -10 1.88 1.04
-1 -9 10 2.26 0.79
-1 -9 10 1.59 0.7
1 9 -10 2.49 0.82
-1 -9 10 0.39 1.44
1 9 -9 9.86 1.6
1 9 -8 14.9 1.9
1 9 -7 2.15 0.52
1 9 -7 1.71 1.06
1 9 -6 -0.52 0.95
1 9 -6 1.8 1.14
1 9 -5 2.66 1.22
1 9 -5 3.5 1.19
1 9 -4 15.37 2.07
-1 -9 4 16.01 1.79
1 9 -4 15.38 2.05
1 9 -3 3 1.08
-1 -9 3 7.55 1.27
1 9 -3 6.84 1.65
1 9 -2 20.51 2.48
1 9 -2 22.78 2.37
-1 -9 2 29.1 2.27
1 9 -1 10.65 1.98
-1 -9 1 12.56 0.79
-1 -9 1 11.8 1.47
1 9 -1 12.7 1.89
1 9 0 -0.58 1.03
1 9 0 -0.19 0.77
-1 -9 0 0.02 0.19
1 9 1 32.21 2.4
1 9 1 34.39 3.03
1 9 2 2.8 0.87
1 9 2 3.08 1.26
1 9 3 1.28 1.13
1 9 3 1.3 0.81
1 9 4 2.35 1.35
-1 -9 -6 0.3 0.59
-1 -10 12 0.92 0.8
1 10 -12 0.36 0.77
-1 -10 12 -0.93 1.65
1 10 -11 1.1 0.77
-1 -10 11 1.42 0.71
-1 -10 10 29.86 2.17
1 10 -10 30.73 2.3
1 10 -10 30.51 2.64
1 10 -9 12.27 1.77
1 10 -8 0.85 0.29
1 10 -8 0.49 1.01
1 10 -7 -0.52 1.03
1 10 -6 10.55 1.82
1 10 -6 10 1.76
1 10 -5 -0.57 1.3
1 10 -5 -0.31 0.96
1 10 -4 2.92 1.38
-1 -10 4 1.65 1.04
1 10 -4 1.26 1.14
-1 -10 3 6.18 1.3
1 10 -3 4.65 1.47
1 10 -3 6.08 1.69
1 10 -2 -0.31 1.04
-1 -10 2 0.25 0.37
1 10 -2 -0.95 1.35
1 10 -1 5.72 1.58
1 10 -1 6.93 1.81
-1 -10 1 5.27 0.49
1 10 0 8.2 1.81
1 10 0 6.87 1.35
1 10 1 9.53 1.94
1 10 1 7.93 1.41
1 10 2 -1.05 1.28
-1 -11 12 0.59 0.77
1 11 -12 1.01 0.88
-1 -11 11 0.58 0.79
1 11 -11 0.41 0.87
1 11 -10 0.75 1.07
1 11 -10 0.83 0.85
1 11 -9 -0.25 0.94
1 11 -9 -0.21 0.79
1 11 -8 0.25 1.1
1 11 -7 0.32 1.14
1 11 -7 1.07 1.14
1 11 -6 -0.84 1.28
1 11 -6 -0.66 1.13
1 11 -5 11.47 1.98
1 11 -5 5.45 1.65
1 11 -4 4.21 1.47
1 11 -4 5.19 1.6
1 11 -3 1.27 1.37
1 11 -3 1.39 1.23
1 11 -2 15.57 2.46
1 11 -2 22.42 2.66
-1 -11 2 16.92 1.01
1 11 -1 11.35 2.05
1 11 -1 11.14 2.24
1 11 0 -0.73 1.49
1 12 -10 -0.51 1.03
1 12 -9 -0.75 1.07
1 12 -8 0.51 0.97
1 12 -7 15.17 2.1
1 12 -7 8.87 2.06
1 12 -6 2.19 1.43
1 12 -6 1.96 1.26
1 12 -5 2.38 1.34
1 12 -4 -1.24 1.44
2 -13 3 0.81 1.04
2 -13 4 2.97 1.05
-2 13 -11 0.53 0.76
2 -12 0 6.16 1.21
2 -12 1 -0.18 0.74
2 -12 2 0.19 0.8
-2 12 -3 0.38 1.3
2 -12 3 0.2 0.87
-2 12 -4 1.1 1.36
-2 12 -7 0.26 0.53
-2 12 -8 1.11 0.59
-2 12 -9 2.24 0.77
-2 12 -10 -0.16 0.68
-2 12 -11 0.85 0.71
-2 12 -12 0.73 0.78
-2 11 3 0.89 0.81
-2 11 2 5.47 1.12
2 -11 -2 2.5 0.82
-2 11 2 4.07 1.18
-2 11 1 8.38 1.34
-2 11 1 7.88 1.93
2 -11 -1 9.15 1.19
-2 11 1 9.58 1.46
-2 11 0 -0.36 1.27
-2 11 0 -0.38 0.81
-2 11 0 -0.41 0.82
2 -11 0 0.34 0.74
-2 11 -1 0.2 0.74
-2 11 -1 2.68 0.97
-2 11 -1 0.36 1.3
2 -11 1 0.18 0.64
-2 11 -2 6.88 0.91
-2 11 -2 9.38 2.07
-2 11 -2 6.16 1.18
2 -11 2 3.67 1.03
-2 11 -3 4.45 1.11
-2 11 -3 7.49 1.87
-2 11 -3 6.88 1.21
-2 11 -4 0.33 1.13
-2 11 -4 0.6 0.75
-2 11 -5 1 0.73
-2 11 -5 0.39 0.73
-2 11 -6 0.2 0.75
-2 11 -6 0.59 0.74
-2 11 -7 0.39 0.7
-2 11 -7 -0.25 0.56
-2 11 -7 -0.59 0.68
-2 11 -8 7.16 1.26
-2 11 -8 7.17 1.03
-2 11 -8 7.61 1.27
-2 11 -9 5.2 1.15
-2 11 -9 4.86 0.97
-2 11 -9 3.87 1.09
-2 11 -10 4.06 1.1
-2 11 -10 3.84 1.04
-2 11 -10 2.62 0.82
-2 11 -11 -0.19 0.8
-2 11 -11 0.17 0.66
-2 11 -12 -0.36 0.79
-2 10 5 -0.59 0.71
-2 10 5 -0.18 0.7
2 -10 -4 7.67 1.05
-2 10 4 4.54 1.04
-2 10 4 6.98 1.21
-2 10 3 1.77 0.8
2 -10 -3 1.67 0.7
-2 10 3 1.01 1.29
-2 10 3 2.95 1.01
-2 10 2 1.16 0.68
-2 10 2 1.64 1.23
-2 10 2 0.37 0.7
2 -10 -2 0.44 0.74
-2 10 1 6.48 1.19
-2 10 1 8.62 1.22
2 -10 -1 10.66 1.27
-2 10 1 3.22 1.39
-2 10 0 8.21 1.21
-2 10 0 5.75 1.62
2 -10 0 10.45 1.28
-2 10 0 8.7 1.33
2 -10 1 1.06 0.83
-2 10 -1 0.63 1.18
-2 10 -1 0.35 0.69
2 -10 1 0.85 0.74
-2 10 -2 0.35 0.68
2 -10 2 -0.22 0.82
2 -10 2 0.52 0.73
-2 10 -2 0.37 0.7
-2 10 -3 27.87 2.14
2 -10 3 22.75 2.25
-2 10 -3 24.59 2.63
-2 10 -4 7.54 1.67
-2 10 -4 4.88 1.09
2 -10 4 6.32 1.39
-2 10 -4 8.57 1.26
2 -10 5 0.51 0.97
-2 10 -5 0.35 0.75
-2 10 -5 2.33 0.83
2 -10 6 12.49 1.83
-2 10 -6 13.65 1.47
-2 10 -6 9.13 1.27
-2 10 -7 18.48 1.76
2 -10 7 16.04 2.19
-2 10 -7 16.59 1.41
-2 10 -7 19.39 1.77
-2 10 -8 60.57 2.96
-2 10 -8 56.65 3.25
-2 10 -8 59.77 3.31
-2 10 -9 7.96 1.12
-2 10 -9 8.89 1.32
-2 10 -9 8.49 1.26
-2 10 -10 5.03 0.91
-2 10 -10 3.95 0.94
-2 10 -10 2.78 0.96
-2 10 -10 4.68 1.05
-2 10 -11 1.55 0.78
-2 10 -11 2.89 0.88
-2 10 -11 3.26 0.96
-2 10 -12 0.59 0.81
-2 10 -12 1.57 0.78
-2 10 -13 0.57 0.82
-2 10 -13 -0.2 0.76
-2 9 6 0.63 0.57
-2 9 6 0.66 0.77
2 -9 -5 0.13 0.56
-2 9 5 -0.31 1.15
-2 9 5 0.4 0.54
-2 9 5 0.33 0.63
-2 9 4 0.14 0.56
-2 9 4 -0.33 0.68
2 -9 -4 -0.13 0.55
-2 9 4 0.31 1.23
2 -9 -3 1.77 0.7
-2 9 3 1.5 1.2
-2 9 3 1.82 0.8
-2 9 3 1.59 0.6
-2 9 3 1.01 0.69
-2 9 2 0.59 1.01
-2 9 2 0.17 0.65
-2 9 2 0.6 0.33
-2 9 2 0.23 0.42
-2 9 2 1.34 0.68
2 -9 -2 0.14 0.61
-2 9 1 1.06 0.81
-2 9 1 0.57 1.07
-2 9 1 0.88 0.42
2 -9 -1 0.91 0.66
-2 9 1 0.5 0.64
-2 9 0 2.25 1.22
-2 9 0 1.66 0.76
-2 9 0 1.67 0.45
-2 9 0 0.77 0.66
2 -9 0 2.49 0.77
2 -9 0 3.22 0.99
-2 9 -1 38.36 2.42
-2 9 -1 39.76 3.21
2 -9 1 38.1 2.45
-2 9 -1 42.28 1.99
2 -9 1 42.91 2.81
-2 9 -2 94.46 4.36
-2 9 -2 99.21 5.33
2 -9 2 97.04 4.72
-2 9 -3 42.94 2.54
-2 9 -3 34.26 2.33
-2 9 -3 40.12 3.11
2 -9 3 34.65 2.66
-2 9 -4 6.36 1.45
-2 9 -4 5.15 0.95
2 -9 4 6.05 1.31
-2 9 -4 5.16 0.95
2 -9 5 6.59 1.42
-2 9 -5 8.16 1.1
-2 9 -5 8.13 1.12
2 -9 6 31.2 2.62
-2 9 -6 26.02 1.65
-2 9 -6 25.2 1.96
-2 9 -6 30.86 2.11
-2 9 -7 25.58 1.92
-2 9 -7 26.38 1.69
-2 9 -7 25.77 1.97
2 -9 7 28.11 2.64
2 -9 8 6.03 1.49
-2 9 -8 4.33 0.84
-2 9 -8 5.04 0.99
-2 9 -8 3.58 0.91
-2 9 -9 10.63 1.21
2 -9 9 9.83 1.91
-2 9 -9 13.74 1.38
-2 9 -9 13 1.43
-2 9 -9 9.75 1.34
-2 9 -10 0.18 0.82
-2 9 -10 -0.14 0.57
-2 9 -10 0.15 0.57
-2 9 -10 -0.34 0.7
-2 9 -11 -0.62 0.74
-2 9 -11 0.82 0.92
-2 9 -11 1.88 0.77
-2 9 -11 0.18 0.68
-2 9 -12 3.77 0.98
-2 9 -12 2.02 0.93
-2 9 -12 2.27 1.12
-2 9 -13 -0.5 1.11
-2 9 -13 0.93 0.88
-2 9 -13 0.19 0.74
-2 8 7 5.42 0.97
-2 8 7 9.43 1.88
-2 8 7 8.23 1.51
-2 8 6 -0.11 0.49
-2 8 6 -0.29 1.02
-2 8 6 -0.19 0.74
-2 8 6 0.59 0.59
-2 8 5 9.55 1.08
-2 8 5 6.9 1.6
2 -8 -5 8.32 1.03
-2 8 5 9.85 1.21
-2 8 5 5.9 1.14
-2 8 4 -0.27 0.89
-2 8 4 0.87 0.62
2 -8 -4 0.13 0.55
-2 8 4 0.9 0.6
-2 8 3 26.94 1.68
-2 8 3 27.18 1.98
-2 8 3 26.22 1.85
2 -8 -3 27.31 1.84
-2 8 3 30.62 1.39
-2 8 3 29.39 2.61
2 -8 -2 14.56 1.36
-2 8 2 14.87 1.43
-2 8 2 11.95 1.72
-2 8 2 12.96 0.84
-2 8 2 12.99 0.99
-2 8 2 14.61 1.35
-2 8 1 1.26 0.94
2 -8 -1 3.04 0.87
-2 8 1 1.21 0.61
-2 8 1 2.53 0.76
-2 8 1 3 0.44
2 -8 -1 1.43 0.61
2 -8 0 33.75 2.16
-2 8 0 31.47 2.68
-2 8 0 32.47 1.54
-2 8 0 33.16 2.09
2 -8 0 30.5 2.26
-2 8 -1 297.2 10
2 -8 1 280.34 10.19
2 -8 1 282.64 9.97
-2 8 -1 297.72 11.03
2 -8 2 145.52 6.05
-2 8 -2 138.43 5.62
-2 8 -2 145.95 6.55
2 -8 3 15.01 1.68
-2 8 -3 16.79 1.93
-2 8 -3 15.12 1.42
-2 8 -3 16.27 1.43
-2 8 -4 -0.44 0.8
2 -8 4 0.82 0.79
-2 8 -4 -0.14 0.5
-2 8 -4 0.14 0.53
2 -8 5 -0.22 0.82
-2 8 -5 0.99 0.62
-2 8 -5 -0.14 0.55
2 -8 6 1.6 1.08
-2 8 -6 0.43 0.57
-2 8 -6 1.86 0.52
-2 8 -6 0.56 0.55
-2 8 -7 16.6 1.27
-2 8 -7 16.66 1.47
2 -8 7 17.03 1.95
-2 8 -7 16.63 1.48
-2 8 -7 16.16 1.44
-2 8 -8 50.13 2.67
-2 8 -8 48.31 2.72
-2 8 -8 51.97 2.55
-2 8 -8 46.55 2.82
2 -8 8 49.12 3.44
-2 8 -9 1.26 0.91
-2 8 -9 1.01 0.63
-2 8 -9 3.36 0.81
-2 8 -9 2.19 0.71
2 -8 9 1.92 1.3
2 -8 10 16.25 2.32
-2 8 -10 21.23 1.64
-2 8 -10 20.11 1.69
-2 8 -10 20.4 1.59
-2 8 -10 14.51 1.77
-2 8 -11 4.39 1.22
-2 8 -11 3.08 0.88
-2 8 -11 2.9 0.82
-2 8 -11 2.96 0.88
-2 8 -12 4.53 0.99
-2 8 -12 5.55 1.33
-2 8 -12 4.29 1.02
-2 8 -13 -0.37 0.92
-2 8 -13 -0.27 1.06
-2 8 -14 1.42 0.91
-2 7 9 7.92 1.77
-2 7 8 0.26 0.59
-2 7 8 0.25 0.88
-2 7 8 -0.85 1.13
-2 7 7 -0.27 1.09
-2 7 7 -0.26 0.54
-2 7 7 0.37 0.44
-2 7 7 -0.22 0.74
-2 7 6 0.19 0.73
-2 7 6 0.59 0.52
-2 7 6 1.46 0.72
-2 7 6 1.25 0.98
-2 7 5 34.73 2.11
-2 7 5 27.47 2.1
-2 7 5 32.28 1.85
2 -7 -5 34.83 2.01
-2 7 5 33.32 2.68
-2 7 4 15.72 0.95
-2 7 4 19.03 1.53
-2 7 4 14.66 1.27
2 -7 -4 14.35 1.34
-2 7 4 18.47 1.98
-2 7 3 7.62 0.92
-2 7 3 7.22 1.39
-2 7 3 7.09 0.9
-2 7 3 7.25 0.6
-2 7 3 7.58 1.03
2 -7 -3 6.2 0.9
-2 7 2 31.07 1.65
-2 7 2 32.29 1.95
-2 7 2 33.89 2.1
-2 7 2 36.14 1.44
2 -7 -2 34.19 2.09
-2 7 2 31.64 2.57
2 -7 -1 20.89 1.67
2 -7 -1 20.59 1.6
-2 7 1 20.04 1
-2 7 1 18.48 1.42
-2 7 1 19.98 2.03
2 -7 0 300.7 10
-2 7 0 271.16 8.83
2 -7 0 295.7 9.86
-2 7 0 300.09 9.68
-2 7 0 308.03 10.67
2 -7 1 1.09 0.82
-2 7 -1 0.26 0.48
-2 7 -1 0.81 0.81
2 -7 1 0.59 0.42
2 -7 2 3.15 0.92
-2 7 -2 2.78 0.65
-2 7 -2 2.67 0.94
2 -7 2 2.94 0.47
-2 7 -2 3.33 0.76
2 -7 3 1.05 0.67
-2 7 -3 1.78 0.59
-2 7 -3 2.92 0.65
-2 7 -3 2.89 0.9
2 -7 4 1.31 0.75
-2 7 -4 1 0.36
-2 7 -4 0.88 0.51
-2 7 -4 0.99 0.54
-2 7 -5 -0.25 0.44
2 -7 5 -0.08 0.4
-2 7 -5 0.08 0.33
2 -7 5 0.2 0.75
-2 7 -5 -0.37 0.51
-2 7 -6 42.73 2.39
-2 7 -6 46.52 2.2
-2 7 -6 46.96 2.5
2 -7 6 46.44 2.43
-2 7 -6 48.87 2.61
2 -7 6 45.94 3.05
2 -7 7 4.94 1.32
2 -7 7 8.31 1.16
-2 7 -7 9.27 1.29
-2 7 -7 10.07 0.96
-2 7 -7 9.19 1.08
-2 7 -7 9.03 1.02
2 -7 8 49.25 3.43
-2 7 -8 47.38 2.54
-2 7 -8 54.59 2.57
-2 7 -8 45.66 2.6
2 -7 8 49.46 2.88
-2 7 -8 51.65 3.01
-2 7 -9 32.98 2
2 -7 9 31.83 2.33
2 -7 9 31.93 2.76
-2 7 -9 27.14 1.85
-2 7 -9 24.64 2.15
-2 7 -9 31.87 2.08
-2 7 -10 210.77 8.54
-2 7 -10 226.31 8.04
-2 7 -10 224.42 7.95
-2 7 -10 219.11 7.76
2 -7 10 220.01 8.69
2 -7 10 235.45 9.32
2 -7 11 28.35 2.62
-2 7 -11 35.37 2.32
2 -7 11 39 3.2
-2 7 -11 39.4 2.18
-2 7 -11 33.14 2.24
-2 7 -11 33.05 2.69
-2 7 -12 4.43 0.97
-2 7 -12 5.75 1.06
-2 7 -12 2.26 1.21
2 -7 12 2.72 1.16
-2 7 -13 1.1 1.17
-2 7 -13 1.3 0.86
2 -7 13 2.11 1.21
-2 7 -14 0.41 0.76
-2 6 11 24.37 2.97
-2 6 10 -1.12 0.99
-2 6 10 0.31 1.13
-2 6 9 -0.42 0.57
-2 6 9 0.52 0.89
2 -6 -9 -0.52 0.65
-2 6 9 1.1 1.22
-2 6 8 2.17 1.07
-2 6 8 2.5 0.69
-2 6 8 1.69 0.95
-2 6 8 1.65 0.46
-2 6 7 0.35 0.48
-2 6 7 0.31 0.44
-2 6 7 0.23 0.73
-2 6 7 1.04 0.83
-2 6 6 -0.17 0.45
-2 6 6 0.21 0.84
-2 6 6 -0.12 0.53
-2 6 6 -0.18 0.6
-2 6 5 1.34 0.52
-2 6 5 1.01 0.83
2 -6 -5 1.5 0.55
-2 6 5 0.98 0.39
-2 6 5 1.55 0.61
-2 6 4 6.74 0.9
-2 6 4 7.89 0.85
-2 6 4 6.07 1.19
-2 6 4 8.76 0.64
2 -6 -4 8.58 0.99
-2 6 3 0.19 0.47
-2 6 3 -0.07 0.22
-2 6 3 -0.19 0.69
-2 6 3 -0.35 0.49
-2 6 3 0.1 0.45
2 -6 -3 0.12 0.48
-2 6 2 0.08 0.4
-2 6 2 -0.35 0.46
-2 6 2 -0.06 0.2
-2 6 2 -0.1 0.44
-2 6 2 -0.37 0.78
2 -6 -2 -0.12 0.48
2 -6 -1 24.03 1.71
-2 6 1 23.58 1.11
-2 6 1 24.75 1.01
-2 6 1 23.69 1.53
2 -6 -1 22.36 1.65
-2 6 1 26.23 2.07
2 -6 0 193.24 6.99
-2 6 0 192.26 5.99
-2 6 0 193.21 6.83
-2 6 0 203.79 7.51
-2 6 -1 24.21 1.58
2 -6 1 21.4 1.45
2 -6 1 23.32 1.74
-2 6 -1 24.09 1.94
2 -6 2 1.61 0.71
-2 6 -2 1.34 0.48
-2 6 -2 2.53 0.57
-2 6 -2 1.52 0.75
2 -6 2 3.25 0.55
-2 6 -3 16.7 1.29
-2 6 -3 15.54 0.91
-2 6 -3 16.58 1.28
2 -6 3 15.24 1.03
-2 6 -3 17 1.6
2 -6 3 17.88 1.59
2 -6 4 3.96 0.91
-2 6 -4 3.94 0.52
2 -6 4 5.13 0.54
-2 6 -4 4.36 0.69
-2 6 -4 5.58 0.76
2 -6 5 13.21 1.05
-2 6 -5 13.44 1.15
-2 6 -5 12.94 0.95
-2 6 -5 11.51 1.26
-2 6 -5 12.87 1.14
2 -6 5 11.65 1.45
-2 6 -6 4.03 0.6
-2 6 -6 4.67 0.93
2 -6 6 1.77 0.86
-2 6 -6 3.99 0.68
2 -6 6 3.44 0.66
-2 6 -6 3.49 0.69
2 -6 7 8.22 1.07
-2 6 -7 8.89 0.97
-2 6 -7 9.84 0.91
-2 6 -7 8.9 1.27
2 -6 7 8.54 1.35
-2 6 -7 10.53 1.08
-2 6 -8 29.9 1.86
-2 6 -8 33.98 1.94
-2 6 -8 32.38 2.39
-2 6 -8 36.52 2.09
2 -6 8 29.91 2.48
2 -6 8 31.64 2.14
-2 6 -9 49.58 2.58
-2 6 -9 46.46 2.38
-2 6 -9 46.61 3
2 -6 9 49.66 3.29
2 -6 9 48.7 2.91
-2 6 -9 46.21 2.57
-2 6 -10 160.95 6.83
-2 6 -10 153.17 5.74
-2 6 -10 159.12 6.09
-2 6 -10 165.86 6.09
2 -6 10 157.85 6.63
-2 6 -11 4.77 0.79
-2 6 -11 3.84 0.88
-2 6 -11 5.38 0.92
-2 6 -11 5.19 1.25
2 -6 11 3.17 1.14
-2 6 -12 21.2 2.28
-2 6 -12 20.26 1.81
-2 6 -12 21.06 1.67
2 -6 12 21.52 2.29
2 -6 13 1.98 1.16
-2 6 -13 2.26 1.25
-2 6 -13 2.26 0.83
2 -6 14 3.47 1.3
2 -6 15 3.15 1.6
2 -5 -11 0.66 0.75
-2 5 11 0.79 1.19
-2 5 11 -0.34 1.18
2 -5 -10 6.45 1.07
-2 5 10 4.4 1.24
2 -5 -10 5.99 1.07
-2 5 10 7.94 1.77
-2 5 9 0.45 0.9
-2 5 9 2.97 1.13
2 -5 -9 1.25 0.73
2 -5 -9 1.24 0.56
-2 5 9 1.48 0.86
-2 5 8 -0.62 0.77
2 -5 -8 0.73 0.5
-2 5 8 0.3 0.31
-2 5 8 -0.47 0.76
2 -5 -8 0.3 0.59
-2 5 8 0.39 0.45
-2 5 8 -0.17 0.68
-2 5 7 10.82 1.04
-2 5 7 11.48 1.46
-2 5 7 8.38 1.32
-2 5 7 11.89 1.33
-2 5 7 11.13 0.84
-2 5 6 40.32 2.15
-2 5 6 40.72 1.92
-2 5 6 46.39 2.73
-2 5 6 40.6 2.67
2 -5 -6 43.61 2.28
2 -5 -5 132.75 5.02
-2 5 5 136.74 5
-2 5 5 130.28 4.67
-2 5 5 133.79 4.44
-2 5 5 131.08 5.54
-2 5 4 16.05 0.84
-2 5 4 15.08 1.22
-2 5 4 13.52 1.26
2 -5 -4 14.14 1.19
-2 5 4 14.67 1.06
-2 5 4 16.44 1.54
-2 5 3 4.53 0.71
-2 5 3 3.95 0.36
-2 5 3 3.54 0.68
2 -5 -3 3.79 0.65
-2 5 3 4.77 0.64
-2 5 3 4.38 0.95
-2 5 2 272.49 8.03
-2 5 2 264.92 8.73
-2 5 2 281.87 8.83
-2 5 2 271.4 9.52
-2 5 1 -0.3 0.57
-2 5 1 0.2 0.29
2 -5 -1 -0.53 0.44
-2 5 1 0.04 0.09
-2 5 1 -0.09 0.35
-2 5 0 0.5 0.42
2 -5 0 1.53 0.54
-2 5 0 0.74 0.17
-2 5 0 1.1 0.61
2 -5 0 0.12 0.47
-2 5 -1 4.02 0.81
2 -5 1 3.05 0.68
-2 5 -1 3.33 0.59
2 -5 1 3.54 0.6
-2 5 -1 2.16 0.51
-2 5 -1 2.85 0.27
2 -5 1 4.11 0.74
2 -5 2 -0.25 0.59
-2 5 -2 0.13 0.56
-2 5 -2 0.04 0.17
-2 5 -2 -0.1 0.39
-2 5 -2 0.09 0.33
2 -5 2 0.1 0.38
-2 5 -3 17.18 1.21
-2 5 -3 16.3 0.88
-2 5 -3 14.99 1.14
2 -5 3 14.27 1.35
2 -5 3 16.57 1.18
2 -5 3 12.51 0.72
-2 5 -4 320.46 10
-2 5 -4 301.83 10
2 -5 4 305.45 9.54
-2 5 -4 316.46 10.46
-2 5 -4 312.61 9.56
2 -5 4 294.35 10.48
2 -5 5 -0.33 0.76
-2 5 -5 0.1 0.38
-2 5 -5 0.07 0.33
2 -5 5 0.3 0.41
-2 5 -5 0.75 0.75
-2 5 -5 -0.29 0.37
-2 5 -6 170.42 6.1
-2 5 -6 177.16 6
-2 5 -6 179.75 6.81
2 -5 6 180.44 6.93
-2 5 -6 174.49 6.24
-2 5 -7 10.75 0.97
-2 5 -7 10.94 1.02
-2 5 -7 8.44 1.25
-2 5 -7 13.04 1.17
2 -5 7 10.09 1.35
2 -5 8 169.11 5.96
-2 5 -8 165.79 5.82
-2 5 -8 162.94 5.98
-2 5 -8 168.19 6.05
-2 5 -8 153.7 6.59
-2 5 -9 114.35 4.7
-2 5 -9 119.33 4.5
-2 5 -9 118.79 5.43
-2 5 -9 119.33 4.71
2 -5 9 122.87 4.62
-2 5 -10 7.52 1.03
-2 5 -10 7.48 0.88
2 -5 10 9.66 1.03
-2 5 -10 8.67 1.54
-2 5 -11 31.67 2.01
2 -5 11 32.17 1.93
-2 5 -11 32.04 2.68
-2 5 -12 2.93 1.09
2 -5 12 2.52 1.12
2 -5 13 8.43 1.69
2 -5 14 0.62 1.17
2 -4 -12 6.55 1.09
-2 4 12 3.53 1.24
-2 4 12 6.03 1.79
-2 4 11 -0.34 1.05
2 -4 -11 -0.15 0.56
2 -4 -11 0.15 0.6
-2 4 11 0.47 0.93
2 -4 -10 6.56 1.01
-2 4 10 4.69 1.18
-2 4 10 5.07 1.12
-2 4 10 6.58 1.55
2 -4 -10 6.76 0.68
2 -4 -10 6.55 1.05
2 -4 -9 1.27 0.57
2 -4 -9 1.26 0.62
-2 4 9 0.79 0.96
-2 4 9 1.55 0.76
-2 4 9 0.52 0.67
-2 4 8 25.04 2.3
2 -4 -8 27.6 1.85
-2 4 8 23.35 1.88
-2 4 8 24.17 1.99
-2 4 7 9.5 0.93
-2 4 7 9.04 1.25
2 -4 -7 8.32 0.91
-2 4 7 8.24 0.65
2 -4 -7 8.64 1.05
-2 4 7 12.09 1.54
-2 4 7 9.99 1.19
2 -4 -6 68.01 2.87
-2 4 6 71.76 3.02
-2 4 6 71.36 2.67
-2 4 6 66.73 3.56
-2 4 6 68.27 3.34
-2 4 6 71.73 3.47
2 -4 -6 80.14 3.23
2 -4 -5 0.52 0.43
-2 4 5 0.13 0.47
-2 4 5 0.32 0.31
-2 4 5 0.52 0.59
-2 4 5 0.54 0.41
-2 4 4 24.48 1.71
-2 4 4 24.15 1.31
-2 4 4 22.19 1.63
-2 4 4 23.35 1.46
-2 4 3 38.16 2.03
-2 4 3 35.46 1.87
-2 4 3 36.5 1.74
-2 4 3 35.87 2.14
-2 4 2 50.85 2.21
-2 4 2 52.25 2.37
-2 4 2 50.56 2.59
-2 4 1 261.27 8.92
-2 4 1 268.83 8.37
2 -4 -1 259.83 8.53
2 -4 -1 266.27 8.5
-2 4 1 260.69 8.64
2 -4 -1 275.15 8.62
-2 4 0 4.41 0.62
-2 4 0 3.16 0.52
2 -4 0 4.38 0.57
2 -4 0 5.2 0.68
-2 4 0 2.77 0.66
2 -4 1 92.75 3.85
-2 4 -1 91.69 2.9
-2 4 -1 94.58 3.54
-2 4 -1 89.82 3.78
2 -4 1 98.27 3.73
-2 4 -1 91.97 3.59
-2 4 -2 101.61 3.95
-2 4 -2 110.23 3.45
2 -4 2 100.75 4.15
-2 4 -2 105.34 3.96
2 -4 2 104.38 4.15
2 -4 3 511.51 16.17
-2 4 -3 535.46 16.04
-2 4 -3 516.11 16.03
-2 4 -3 526.21 15.57
2 -4 3 526.73 16.44
-2 4 -4 258.47 8.47
-2 4 -4 254.51 8.38
-2 4 -4 258.7 8.13
2 -4 4 270.63 8.94
-2 4 -4 251.88 9.06
-2 4 -5 235.11 8
2 -4 5 254.36 8.21
-2 4 -5 256.79 8.3
-2 4 -5 254.72 8.18
-2 4 -5 238.63 8.85
2 -4 5 260.76 8.77
-2 4 -6 5.73 1.06
-2 4 -6 5.54 0.69
-2 4 -6 4.43 0.67
-2 4 -7 178.03 6.93
-2 4 -7 167.57 6.16
2 -4 7 172.33 6.06
-2 4 -7 179.38 6.04
-2 4 -8 6.33 0.74
-2 4 -8 3.82 1.01
-2 4 -8 5.49 0.85
2 -4 8 6.53 0.78
2 -4 9 3.32 0.64
-2 4 -9 3.79 0.63
-2 4 -9 2.72 0.93
-2 4 -9 3.68 0.75
2 -4 9 3.09 0.64
2 -4 10 31.44 1.75
2 -4 10 30.05 1.77
-2 4 -10 30.56 2.54
-2 4 -11 9.54 1.57
2 -4 11 6.53 0.84
-2 4 -12 13.62 1.5
2 -4 12 8.17 0.97
-2 4 -12 8.46 1.63
-2 4 -13 15.46 1.75
2 -4 14 1.91 1.28
-2 4 -14 2.68 1.03
-2 3 13 3.75 1.84
-2 3 13 6.43 1.44
-2 3 12 4.49 1.93
2 -3 -12 5.83 0.99
2 -3 -12 4.11 0.85
2 -3 -11 5.8 0.95
2 -3 -11 8.2 1.04
-2 3 11 3.02 1.36
-2 3 11 8.31 1.32
2 -3 -10 2.11 0.71
2 -3 -10 0.93 0.36
-2 3 10 3.85 1.46
2 -3 -10 1.73 0.66
-2 3 10 1.05 0.79
2 -3 -9 3.05 0.72
2 -3 -9 2.07 0.63
2 -3 -9 2.96 0.53
-2 3 9 2.6 1.13
-2 3 9 3.22 0.9
2 -3 -9 2.43 0.7
2 -3 -8 190.57 6.74
2 -3 -8 176.88 6.21
2 -3 -8 177.56 6.43
2 -3 -8 198.54 6.78
-2 3 8 192.39 7.8
-2 3 8 199.48 7.07
-2 3 7 9.92 1.39
2 -3 -7 10.5 0.95
2 -3 -7 11.65 1.11
-2 3 7 12.16 1.23
-2 3 7 9.31 1.12
2 -3 -6 0.49 0.34
-2 3 6 -0.12 0.49
-2 3 6 -0.08 0.3
2 -3 -6 1.2 0.52
-2 3 6 0.31 0.24
-2 3 6 0.86 0.56
-2 3 6 0.25 0.47
-2 3 5 25.64 1.49
2 -3 -5 28.85 1.35
-2 3 5 26.26 1.29
-2 3 5 29.77 1.83
-2 3 5 26.88 1.69
2 -3 -4 -0.09 0.32
-2 3 4 0.1 0.38
2 -3 -4 -0.04 0.21
-2 3 4 -0.26 0.5
-2 3 4 -0.11 0.48
-2 3 4 0.48 0.34
-2 3 4 -0.06 0.26
2 -3 -4 -0.07 0.33
2 -3 -3 61.36 2.04
-2 3 3 60.39 2.68
2 -3 -3 56.73 2.47
-2 3 3 65.04 2.45
-2 3 3 61.55 2.89
2 -3 -3 63.5 2.41
-2 3 2 11.82 1.04
2 -3 -2 11.11 0.85
2 -3 -2 8.71 0.75
-2 3 2 9.95 0.93
-2 3 1 22.32 1.31
2 -3 -1 19.93 1.21
2 -3 -1 24.09 1.24
-2 3 1 24.36 1.38
-2 3 1 20.86 1.33
2 -3 -1 20.69 1.2
2 -3 0 11.75 0.85
2 -3 0 13.21 0.76
-2 3 0 12.01 0.96
-2 3 0 11.4 0.93
-2 3 0 12.4 0.9
2 -3 0 12.21 0.88
2 -3 1 395.51 13
-2 3 -1 441.63 13.04
-2 3 -1 418.15 12.4
-2 3 -1 425.67 12.99
2 -3 1 418.3 13.52
2 -3 1 441.63 12.84
-2 3 -2 439.21 13.65
-2 3 -2 444.67 13.17
-2 3 -2 431.54 13.62
2 -3 2 446.75 14.07
2 -3 2 460.78 13.78
-2 3 -3 14.7 1.03
-2 3 -3 14.2 1.04
-2 3 -3 13.21 0.83
2 -3 3 12.87 1.16
2 -3 3 13.79 1.11
2 -3 4 4.06 0.52
-2 3 -4 5.04 0.61
-2 3 -4 4.35 0.6
2 -3 4 4.05 0.66
-2 3 -5 4.15 0.6
2 -3 5 4.01 0.57
-2 3 -5 4.28 0.61
-2 3 -6 110.99 4.04
2 -3 6 107.72 4.09
-2 3 -6 110.39 4.18
2 -3 7 28.64 1.71
2 -3 7 30.94 1.23
-2 3 -7 31.25 1.77
2 -3 7 26.76 1.57
-2 3 -7 28.63 1.56
2 -3 7 28.11 1.58
2 -3 8 4.26 0.29
2 -3 8 3.4 0.61
-2 3 -8 2.68 0.65
2 -3 8 4.09 0.3
2 -3 8 3.19 0.57
-2 3 -9 6.81 0.97
2 -3 9 5.84 0.73
2 -3 9 6.76 0.71
2 -3 10 38.17 1.95
-2 3 -10 34.19 2.28
2 -3 11 0.58 0.51
-2 3 -11 0.17 0.7
-2 3 -12 1.93 0.87
2 -3 12 2.14 0.6
-2 3 -12 1.41 1.13
-2 3 -13 0.21 0.82
2 -3 13 -0.1 0.45
-2 3 -14 7.78 1.37
2 -2 -13 1.77 0.68
-2 2 13 0.82 1.37
2 -2 -12 0.38 0.56
-2 2 12 1.1 1.27
2 -2 -12 0.13 0.51
2 -2 -11 1.01 0.63
-2 2 11 0.7 0.75
2 -2 -11 0.14 0.64
-2 2 11 0.33 1.11
2 -2 -11 0.38 0.5
2 -2 -10 10.44 1.15
2 -2 -10 10.3 1.11
2 -2 -10 11.56 0.68
-2 2 10 6.47 1.49
2 -2 -10 11.56 1.16
-2 2 10 11.1 1.32
2 -2 -9 20.58 1.49
2 -2 -9 22.62 1.59
2 -2 -9 23.69 1.21
2 -2 -9 25.94 1.67
-2 2 9 27.16 2.47
-2 2 9 20.55 1.75
2 -2 -8 1.9 0.58
2 -2 -8 0.68 0.48
2 -2 -8 1 0.44
-2 2 8 1.09 0.64
2 -2 -8 1.48 0.41
-2 2 8 2.99 1.01
2 -2 -7 64.56 2.84
2 -2 -7 61.28 2.5
2 -2 -7 57.93 2.55
2 -2 -7 62.45 2.81
-2 2 7 58.97 3.44
-2 2 7 60.3 2.94
2 -2 -6 -0.1 0.4
2 -2 -6 0.51 0.4
2 -2 -6 -0.1 0.37
2 -2 -6 0.06 0.28
2 -2 -6 0.25 0.3
-2 2 6 -0.23 0.48
2 -2 -5 84.73 3.34
2 -2 -5 94.63 3.3
2 -2 -5 86.05 3.1
2 -2 -5 94.1 3.06
2 -2 -5 91.31 3.52
-2 2 5 85.31 3.65
-2 2 4 365.73 11.28
-2 2 4 364.04 11.27
2 -2 -4 377.69 10.85
-2 2 4 373.32 11.02
2 -2 -4 373.62 11.22
-2 2 4 344.19 12.06
2 -2 -4 334.58 10.92
2 -2 -4 363.46 11.31
-2 2 4 372.01 11.63
2 -2 -3 1.02 0.3
-2 2 3 0.79 0.32
-2 2 3 0.93 0.33
-2 2 3 0.64 0.56
2 -2 -3 0.86 0.16
2 -2 -3 0.57 0.32
-2 2 3 1.4 0.44
-2 2 2 101.44 3.7
2 -2 -2 98.78 3.64
-2 2 2 90.91 4.05
2 -2 -2 104.09 3.53
2 -2 -2 104.57 3.73
-2 2 2 105.24 3.6
-2 2 1 82.07 2.99
-2 2 1 77.17 3.08
-2 2 1 79.9 2.88
2 -2 -1 83.95 3.18
2 -2 -1 79.22 2.93
2 -2 -1 82.41 2.76
2 -2 0 242.93 7.07
2 -2 0 236.82 7.41
-2 2 0 239.17 7.63
2 -2 0 244.15 7.6
-2 2 0 236.62 7.72
2 -2 0 231.33 7.91
2 -2 1 710.31 20.81
-2 2 -1 714.52 21.29
2 -2 1 708.23 21.14
2 -2 1 719.94 21.96
-2 2 -1 731.5 21.34
-2 2 -2 57.37 2.42
2 -2 2 57.89 2.37
2 -2 2 56.96 2.13
-2 2 -2 61.07 2.47
-2 2 -2 63.02 3.03
2 -2 2 60.79 2.86
2 -2 3 50.86 2.13
-2 2 -3 50.66 2.18
2 -2 3 53.2 2.04
2 -2 3 50.05 2.54
2 -2 3 48.42 1.99
2 -2 3 51.99 2.23
-2 2 -3 53.01 2.28
-2 2 -3 51.44 2.77
-2 2 -4 327.39 10.01
2 -2 4 324.91 10.03
2 -2 4 318.2 9.91
2 -2 4 321.2 9.67
-2 2 -4 308.94 10.11
-2 2 -4 305.95 10.77
2 -2 5 87.11 2.96
2 -2 5 89.56 3.36
2 -2 5 82.65 3.22
2 -2 5 91.14 3.4
2 -2 5 94.93 3.01
-2 2 -5 86.03 4.11
2 -2 6 9.4 0.52
-2 2 -6 9.71 0.94
2 -2 6 8.54 0.5
-2 2 -6 9.93 1.29
2 -2 6 7.68 0.69
2 -2 6 9.83 0.89
2 -2 6 9.85 0.82
2 -2 7 6.21 0.6
2 -2 7 5.95 0.68
2 -2 7 8.25 0.87
-2 2 -7 6.02 0.82
-2 2 -7 6.91 1.15
-2 2 -8 2.45 0.89
2 -2 8 1.49 0.54
-2 2 -8 3.02 0.67
2 -2 8 1.91 0.43
2 -2 8 1.52 0.36
-2 2 -9 6.38 0.97
2 -2 9 7.55 0.67
-2 2 -9 10.09 1.5
2 -2 9 6.31 0.91
2 -2 9 6.63 0.75
-2 2 -10 -0.33 0.61
2 -2 10 0.14 0.56
2 -2 10 0.7 0.47
-2 2 -10 -0.49 0.9
-2 2 -11 25.12 2.44
-2 2 -11 22.4 1.9
2 -2 11 17.78 1.62
2 -2 11 21.28 1.36
-2 2 -12 0.62 0.79
2 -2 12 2.07 0.58
-2 2 -13 -0.46 0.85
2 -2 13 0.53 0.46
2 -1 -13 0.71 0.58
-2 1 13 0.82 1.33
2 -1 -13 -0.12 0.51
2 -1 -12 0.12 0.54
2 -1 -12 0.6 0.64
2 -1 -12 -0.36 0.66
-2 1 12 1.12 1.42
2 -1 -11 -0.12 0.55
2 -1 -11 0.13 0.55
-2 1 11 -0.32 0.68
-2 1 11 0.66 1.14
2 -1 -11 -0.23 0.45
2 -1 -10 0.46 0.51
2 -1 -10 0.7 0.55
2 -1 -10 0.11 0.49
-2 1 10 2.07 1.18
-2 1 10 0.74 0.7
-2 1 9 5.66 0.99
2 -1 -9 6.94 0.86
2 -1 -9 6.64 0.81
-2 1 9 7.35 1.45
2 -1 -9 6.23 0.56
2 -1 -9 7.87 0.91
2 -1 -8 64.56 2.98
2 -1 -8 69.29 2.82
2 -1 -8 63.63 2.44
2 -1 -8 70.18 3.02
2 -1 -8 69.65 2.58
-2 1 8 68.63 3.98
-2 1 8 63.47 3.06
2 -1 -7 62.31 2.46
2 -1 -7 60.75 2.62
2 -1 -7 69.97 2.6
2 -1 -7 68.65 2.92
2 -1 -7 65.18 2.91
-2 1 7 68.98 3.04
2 -1 -6 348.07 10.13
2 -1 -6 322.73 10.47
2 -1 -6 357.64 10.56
2 -1 -6 341.41 10.61
-2 1 6 336.56 10.99
2 -1 -5 3.15 0.54
-2 1 5 3.46 0.61
2 -1 -5 4.25 0.46
2 -1 -5 3.5 0.48
2 -1 -5 2.77 0.33
2 -1 -4 2.13 0.31
2 -1 -4 1.8 0.29
2 -1 -4 2.06 0.42
2 -1 -4 3.24 0.64
-2 1 4 2.52 0.53
2 -1 -3 425.02 12.35
-2 1 3 431.89 12.63
2 -1 -3 369.15 12.15
2 -1 -3 415.5 12.81
2 -1 -2 47.72 1.99
-2 1 2 46.25 2.13
2 -1 -2 43.2 1.86
2 -1 -2 44.1 2.37
2 -1 -2 48.93 2.08
-2 1 2 46.06 1.66
2 -1 -1 453.27 13.47
2 -1 -1 405.45 12.68
2 -1 0 111.43 3.91
2 -1 0 113.53 3.67
2 -1 0 113.27 3.93
2 -1 0 117.01 3.96
2 -1 0 120.31 4.71
2 -1 0 111.82 3.54
2 -1 0 113.94 4.06
2 -1 1 0.16 0.23
2 -1 1 0.42 0.21
2 -1 1 0.53 0.3
2 -1 1 -0.38 0.41
2 -1 2 14.73 1.01
2 -1 2 15.31 0.91
2 -1 2 17.59 1.07
2 -1 2 16.23 0.96
2 -1 2 20.05 0.99
-2 1 -2 19.17 1.57
2 -1 3 131.56 4.8
2 -1 3 161.41 5.18
2 -1 3 151.41 5.04
2 -1 3 158.84 4.87
2 -1 3 170.55 5.27
-2 1 -3 145.13 5.13
-2 1 -3 163.73 6.04
-2 1 -4 179.96 6.91
-2 1 -4 181.79 6.22
2 -1 4 170.28 6.03
2 -1 4 188.5 6.1
2 -1 4 186.87 5.69
2 -1 4 187.52 5.69
-2 1 -5 93.8 3.7
2 -1 5 95.1 3.36
2 -1 5 90.56 3.56
2 -1 5 90.86 3.37
2 -1 5 90.25 2.93
2 -1 5 94.4 2.94
-2 1 -5 93.58 4.3
2 -1 6 56.75 2.22
-2 1 -6 55.54 2.67
2 -1 6 58.04 2.55
2 -1 6 54.63 2.26
-2 1 -6 49.66 3.05
2 -1 7 5.79 0.56
-2 1 -7 8.69 0.99
2 -1 7 7.34 0.66
2 -1 7 5.91 0.76
-2 1 -7 6.06 1.18
-2 1 -8 39.11 2.26
2 -1 8 32.73 1.45
2 -1 8 34.1 1.97
2 -1 8 30.33 1.46
-2 1 -8 33.89 2.58
2 -1 9 0.17 0.42
2 -1 9 0.6 0.28
-2 1 -9 -0.81 0.66
2 -1 9 0.79 0.52
2 -1 9 0.58 0.29
-2 1 -9 0.23 0.81
2 -1 10 136.62 5.34
-2 1 -10 137.12 5.65
2 -1 10 125.31 4.65
-2 1 -10 127.46 6.19
2 -1 11 13.59 1.43
-2 1 -11 10.79 1.46
2 -1 11 10.98 0.96
-2 1 -11 9.44 1.7
-2 1 -12 1.54 0.9
2 -1 12 1.76 0.5
-2 1 -13 -0.24 0.8
2 0 -14 1.16 0.57
-2 0 14 1.37 1.53
2 0 -13 0.81 0.71
-2 0 13 0.41 1.46
2 0 -13 0.11 0.47
2 0 -13 -0.11 0.48
-2 0 12 14.83 1.5
2 0 -12 15.48 1.45
2 0 -12 12.64 1.19
2 0 -12 12.87 1.21
-2 0 12 18.31 2.6
2 0 -11 0.22 0.56
-2 0 11 0.3 0.64
2 0 -11 0.64 0.65
2 0 -11 0.44 0.6
2 0 -10 49.66 2.46
2 0 -10 46.83 2.38
2 0 -10 48.57 2.41
-2 0 10 40.52 2.46
2 0 -9 126.41 4.63
2 0 -9 110.91 3.93
2 0 -9 124 4.55
2 0 -9 125.26 4.62
-2 0 9 123.98 4.79
-2 0 8 2.63 0.66
2 0 -8 2.23 0.58
2 0 -8 1.99 0.54
2 0 -8 1.71 0.36
2 0 -8 2.01 0.38
2 0 -8 2.96 0.65
2 0 -7 63.1 2.44
2 0 -7 69.83 2.69
2 0 -7 61.78 2.03
-2 0 7 62.49 2.85
2 0 -7 64.7 2.47
2 0 -6 314.48 9.68
2 0 -6 319.18 9.66
2 0 -6 307.96 9.26
2 0 -6 304.87 9.59
-2 0 6 306.63 9.99
-2 0 5 13.15 1.02
-2 0 5 13.02 1.04
2 0 -5 14.17 0.94
2 0 -5 13.14 0.74
2 0 -5 14.18 1.3
2 0 -5 12.58 0.89
-2 0 4 10.83 0.91
-2 0 4 12.03 0.91
2 0 -4 11.46 0.84
-2 0 4 12.33 0.95
2 0 -4 11.58 0.73
2 0 -4 11.16 1.2
-2 0 4 7.97 1.22
-2 0 3 132.09 4.54
2 0 -3 125.88 4.46
-2 0 3 129.93 4.58
-2 0 3 129.48 5.46
2 0 -3 132.04 5.18
-2 0 3 131.06 4.57
-2 0 2 0.91 0.35
-2 0 2 0.56 0.33
2 0 -2 1.53 0.79
-2 0 2 1.34 0.67
-2 0 2 2.32 0.42
2 0 -2 1.1 0.31
2 0 -2 0.73 0.34
-2 0 2 0.55 0.37
2 0 -1 78.81 3.63
-2 0 1 73.59 2.97
-2 0 1 81.25 2.89
-2 0 1 76.13 2.9
2 0 -1 72.44 2.83
2 0 0 8.19 0.72
-2 0 0 10.01 0.84
2 0 0 10.29 0.76
-2 0 0 10.13 0.76
-2 0 0 11.1 0.78
2 0 0 10.81 0.77
2 0 0 9.94 0.74
2 0 1 13.04 0.8
-2 0 -1 10.27 0.95
2 0 1 12.45 0.9
2 0 1 13.82 0.9
-2 0 -1 11.96 0.8
-2 0 -1 14.11 1.32
2 0 1 13.27 0.84
2 0 2 252.93 7.94
-2 0 -2 258.62 8.27
-2 0 -2 261.89 9.06
-2 0 -2 245.39 8.29
2 0 2 263.62 8.18
2 0 2 266.82 7.95
2 0 2 259.68 8.18
-2 0 -3 162.39 5.56
-2 0 -3 176.65 6.3
2 0 3 160.24 5.41
-2 0 -3 161.63 5.04
-2 0 -3 157.76 5.07
2 0 3 157.92 5.29
2 0 3 153.29 4.98
2 0 3 158.67 5
2 0 4 166.31 5.47
-2 0 -4 167.12 5.58
-2 0 -4 166.31 5.15
2 0 4 161.23 5.44
-2 0 -4 170.49 6.48
-2 0 -4 155.91 5.76
2 0 5 8.34 0.72
-2 0 -5 8.91 0.95
2 0 5 9.23 0.74
-2 0 -5 6.95 1.15
-2 0 -6 -0.19 0.63
-2 0 -6 -0.12 0.44
2 0 6 0.1 0.34
2 0 6 -0.06 0.3
2 0 6 0.11 0.26
-2 0 -7 1.11 0.52
2 0 7 0.71 0.3
2 0 7 0.91 0.46
-2 0 -7 1.03 0.75
-2 0 -8 18.28 1.59
2 0 8 17.49 1.38
2 0 8 15.65 0.9
-2 0 -8 12.17 1.65
-2 0 -9 85.08 4.1
2 0 9 78.71 2.81
2 0 9 88.72 3.82
-2 0 -9 91.49 4.68
2 0 9 86.3 3.34
-2 0 -10 29.7 2.82
-2 0 -10 34.66 2.5
2 0 10 35.99 2.26
2 0 10 35.43 1.81
-2 0 -11 4.08 1.1
2 0 11 5.15 0.69
2 0 12 0.48 0.45
-2 0 -12 0.47 0.79
-2 0 -13 0.52 0.92
2 1 -14 0.9 0.5
2 1 -14 0.59 0.46
2 1 -14 0.17 0.7
2 1 -13 -0.2 0.46
2 1 -13 -0.31 0.66
2 1 -13 0.51 0.53
2 1 -12 87.97 3.69
2 1 -12 89.72 4.05
2 1 -12 90.26 3.7
-2 -1 12 93.99 4.19
2 1 -11 15.46 1.27
2 1 -11 15.9 1.4
2 1 -11 14.43 1.18
-2 -1 11 15.71 1.45
-2 -1 10 0.4 0.59
-2 -1 10 -0.31 1.07
2 1 -10 0.52 0.51
2 1 -10 0.57 0.49
2 1 -10 0.52 0.52
2 1 -9 130.49 4.9
2 1 -9 128.07 4.38
-2 -1 9 137.77 6.53
2 1 -9 130.45 4.89
2 1 -9 137.11 4.93
-2 -1 9 131.23 5.07
-2 -1 8 209.64 6.73
2 1 -8 200.58 6.63
2 1 -8 209.54 7
-2 -1 8 224.6 7.15
2 1 -8 204.85 6.21
-2 -1 8 211.84 7.22
-2 -1 8 189.4 8.44
-2 -1 7 150.95 4.97
-2 -1 7 145.69 5.23
-2 -1 7 134.95 6.41
-2 -1 7 141.46 5.23
-2 -1 6 81.16 3.23
-2 -1 6 72.57 3.22
-2 -1 6 79.64 3.09
2 1 -6 84.58 3.86
-2 -1 6 88.6 3.34
2 1 -6 83.13 3.01
-2 -1 5 175.48 5.79
-2 -1 5 173.15 5.8
-2 -1 5 167.1 5.68
-2 -1 5 167.16 5.83
2 1 -5 165.77 6.5
-2 -1 4 37.1 1.73
-2 -1 4 37.04 1.81
-2 -1 4 34.17 1.67
2 1 -4 38.03 2.44
-2 -1 4 31.75 1.68
-2 -1 3 7.54 0.73
2 1 -3 7.99 1.26
2 1 -3 8.33 0.71
-2 -1 3 6.28 0.67
-2 -1 3 7.14 0.7
2 1 -3 7.18 0.59
-2 -1 3 7.21 0.56
-2 -1 3 8.85 0.73
-2 -1 2 428.96 12.91
-2 -1 2 437.5 12.83
-2 -1 2 430.48 12.98
-2 -1 2 409.5 12.41
-2 -1 2 403.83 12.93
2 1 -2 414.47 14.12
2 1 -2 439.62 12.69
2 1 -1 186.58 5.88
-2 -1 1 193.71 5.94
-2 -1 1 196.06 6.03
-2 -1 1 176.6 5.96
2 1 -1 187.92 5.89
2 1 -1 168.51 5.64
2 1 -1 167.93 5.52
-2 -1 0 53.34 2.12
2 1 0 53.41 2.09
-2 -1 0 47.63 2.22
-2 -1 0 52.28 2.15
2 1 0 51.99 2.07
2 1 0 53.52 1.97
2 1 0 50.67 1.93
2 1 1 38.68 1.65
2 1 1 43.35 1.98
-2 -1 -1 39.17 1.91
-2 -1 -1 38.99 2.38
2 1 1 40.17 1.67
2 1 1 43.72 1.86
2 1 2 342.08 10.59
-2 -1 -2 345.73 11.57
2 1 3 407.28 12.94
-2 -1 -3 430.86 13.44
-2 -1 -3 431.63 12.77
-2 -1 -3 434.1 12.8
-2 -1 -3 425.47 14.04
-2 -1 -4 0.74 0.23
-2 -1 -4 0.95 0.37
-2 -1 -4 0.57 0.44
-2 -1 -4 0.46 0.22
-2 -1 -4 0.34 0.67
-2 -1 -5 -0.14 0.19
-2 -1 -5 0.07 0.29
-2 -1 -5 -0.26 0.48
-2 -1 -5 0.37 0.6
-2 -1 -5 -0.11 0.18
-2 -1 -6 43.08 2.43
-2 -1 -6 42.33 1.92
2 1 6 41.34 2.19
-2 -1 -6 41.28 1.48
-2 -1 -6 39.18 1.48
-2 -1 -6 50.49 3.02
-2 -1 -7 49.92 2.19
-2 -1 -7 54.96 2.95
2 1 7 55.03 2.73
2 1 7 53.36 2.15
-2 -1 -7 54.98 3.37
-2 -1 -8 1.23 0.67
2 1 8 1.36 0.6
2 1 8 1.49 0.37
2 1 8 1.64 0.52
-2 -1 -8 1.19 0.87
-2 -1 -9 40.91 3.21
2 1 9 45.03 1.74
-2 -1 -9 42.04 2.82
2 1 9 50.73 2.67
2 1 9 44.52 2.17
2 1 10 10.99 0.54
-2 -1 -10 12.58 1.56
2 1 10 10.46 1.26
2 1 10 12.6 1.02
-2 -1 -10 9.86 1.72
2 1 11 -0.26 0.43
-2 -1 -11 0.23 0.81
-2 -1 -12 5.37 1.31
2 2 -15 3.76 1
2 2 -14 23.39 2.01
-2 -2 14 26.11 3.46
2 2 -13 15.56 1.51
-2 -2 13 21.28 3.01
-2 -2 12 0.6 0.63
2 2 -12 0.79 0.54
-2 -2 12 -0.39 1.29
2 2 -12 1.56 0.67
2 2 -12 2.18 0.67
2 2 -11 0.1 0.48
-2 -2 11 -0.54 0.5
2 2 -11 0.77 0.59
-2 -2 11 1.06 1.1
2 2 -11 0.29 0.43
-2 -2 10 0.49 0.56
-2 -2 10 0.66 0.56
2 2 -10 0.5 0.15
2 2 -10 1.09 0.47
2 2 -10 0.6 0.33
2 2 -10 0.59 0.52
-2 -2 10 1.61 1.11
-2 -2 10 0.8 0.38
2 2 -10 -0.1 0.4
-2 -2 9 -0.11 0.43
2 2 -9 0.1 0.44
-2 -2 9 0.07 0.35
2 2 -9 0.76 0.48
-2 -2 9 0.21 0.49
-2 -2 9 -0.3 0.9
2 2 -9 0.1 0.42
-2 -2 8 32.92 1.87
2 2 -8 35.69 1.91
-2 -2 8 37.75 1.78
-2 -2 8 40.77 2.03
2 2 -8 32.87 1.83
-2 -2 8 37.13 2.97
-2 -2 8 37.63 1.96
-2 -2 7 7.35 0.84
-2 -2 7 7.2 0.82
-2 -2 7 9.81 0.81
2 2 -7 8.51 1.16
-2 -2 7 9.37 0.89
-2 -2 6 0.79 0.39
-2 -2 6 0.53 0.43
-2 -2 6 0.59 0.36
2 2 -6 0.35 0.75
-2 -2 6 0.36 0.34
-2 -2 5 122.12 4.46
-2 -2 5 127.7 4.41
-2 -2 5 122.73 4.5
2 2 -5 128.38 5.45
-2 -2 5 120.11 4.34
-2 -2 4 44.24 2.04
-2 -2 4 45.36 2.04
-2 -2 4 43.04 2.06
-2 -2 4 45.93 2.04
2 2 -4 44.83 2.85
-2 -2 3 53.54 2.26
-2 -2 3 50.75 2.25
-2 -2 3 55.68 2.32
2 2 -3 47.47 3.09
-2 -2 3 51.45 2.14
-2 -2 2 198.8 6.54
-2 -2 2 212.97 6.64
-2 -2 2 184.96 6.6
2 2 -2 205.36 7.86
-2 -2 2 190.29 6.3
2 2 -2 211.12 6.47
-2 -2 1 14.69 0.99
2 2 -1 15.39 1
2 2 -1 16.52 0.98
2 2 -1 15.42 1.45
-2 -2 1 16.09 1.12
-2 -2 1 17.95 1.08
2 2 -1 17.06 0.99
2 2 -1 13.27 0.74
-2 -2 0 332.75 10.84
2 2 0 363.56 10.93
-2 -2 0 359.35 11.06
-2 -2 0 349.7 10.89
2 2 0 364.96 11.73
2 2 0 355.14 10.44
2 2 1 412.95 12
-2 -2 -1 392.98 12.58
2 2 1 403.34 12.57
-2 -2 -1 416.39 13.5
2 2 1 412.85 13.27
-2 -2 -2 87.86 3.24
-2 -2 -2 92.7 3.28
-2 -2 -2 94.1 4.22
-2 -2 -3 40.32 1.73
-2 -2 -3 38.06 1.89
-2 -2 -3 40.89 1.74
-2 -2 -3 41.49 2.59
-2 -2 -4 4.88 0.52
-2 -2 -4 3.63 0.58
-2 -2 -4 3.29 0.91
-2 -2 -4 3.21 0.43
2 2 5 7.14 0.85
-2 -2 -5 6.42 0.56
-2 -2 -5 6.64 0.95
-2 -2 -5 6.34 1.17
-2 -2 -5 6.81 0.58
-2 -2 -5 6.2 0.72
-2 -2 -6 60.4 3.09
-2 -2 -6 52.78 2.36
2 2 6 57.64 2.81
-2 -2 -6 54 2.06
-2 -2 -6 56.04 2.08
-2 -2 -6 56.72 3.44
-2 -2 -7 3.63 0.39
-2 -2 -7 4.05 0.89
-2 -2 -7 4.92 0.66
2 2 7 5.69 0.88
-2 -2 -7 3.98 0.39
-2 -2 -7 2.8 1
2 2 8 49.43 2.01
-2 -2 -8 44.85 1.59
-2 -2 -8 48.44 2.99
2 2 8 53.9 2.78
-2 -2 -8 44.72 1.56
2 2 8 51.75 2.36
-2 -2 -8 49.25 2.08
-2 -2 -8 57.18 3.59
-2 -2 -9 -0.21 0.85
2 2 9 0.16 0.57
2 2 9 -0.15 0.33
2 2 9 -0.19 0.47
-2 -2 -9 -0.83 1.17
2 2 10 10.47 0.57
-2 -2 -10 10.94 1.53
2 2 10 9.73 0.96
-2 -2 -11 24.14 2.37
2 2 11 25.94 1.56
2 3 -15 0.38 0.81
2 3 -14 43.9 2.73
-2 -3 14 40.06 4.19
2 3 -13 96.06 4.29
-2 -3 13 82.35 5.87
-2 -3 12 17.57 2.59
2 3 -12 14.4 1.41
-2 -3 12 15.13 1.32
-2 -3 12 11.38 1.29
2 3 -11 14.29 1.35
-2 -3 11 14.45 1.29
-2 -3 11 14.72 2.23
-2 -3 11 15.07 1.35
-2 -3 10 1.26 0.52
-2 -3 10 2.37 0.67
-2 -3 10 1.54 0.62
-2 -3 10 1.97 0.53
-2 -3 10 0.34 0.99
-2 -3 9 2.14 0.6
-2 -3 9 0.98 0.52
-2 -3 9 0.63 0.88
-2 -3 9 0.73 0.54
-2 -3 9 0.88 0.41
2 3 -8 4.06 0.63
-2 -3 8 4.87 0.75
-2 -3 8 3.62 0.61
-2 -3 8 3.44 0.63
2 3 -8 5.27 1.13
-2 -3 8 4.12 1.23
2 3 -8 3.96 0.62
-2 -3 7 1.25 0.48
-2 -3 7 1.08 0.5
-2 -3 7 0.6 0.43
2 3 -7 1.36 0.84
-2 -3 6 152.62 5.23
-2 -3 6 119.76 5.05
-2 -3 6 153.1 5.38
-2 -3 6 144.16 5.15
2 3 -6 161.02 6.34
-2 -3 5 146.43 5.22
-2 -3 5 148.3 5.26
-2 -3 5 152.12 5.44
-2 -3 5 149.68 5.3
2 3 -5 146.06 6.38
-2 -3 4 46.56 2.19
-2 -3 4 46.42 2.18
-2 -3 4 48.23 2.22
2 3 -4 42.76 2.99
-2 -3 4 48.37 2.28
-2 -3 3 536.72 18.18
-2 -3 3 603.21 18.25
2 3 -3 657.14 19.96
-2 -3 3 603.55 18.29
-2 -3 3 622.49 18.27
2 3 -3 617.83 18.37
-2 -3 3 618.8 17.91
-2 -3 2 0.38 0.35
-2 -3 2 0.15 0.37
-2 -3 2 0.16 0.34
-2 -3 2 -0.04 0.24
2 3 -2 -0.21 0.84
2 3 -2 -0.17 0.42
-2 -3 2 -0.23 0.37
-2 -3 1 79.54 3.18
-2 -3 1 83.7 3.29
-2 -3 1 85.93 2.8
-2 -3 1 82.38 3.2
2 3 -1 86.73 3.41
2 3 0 200.36 6.65
-2 -3 0 187.41 6.5
-2 -3 0 191.22 7.19
-2 -3 -1 650.43 20.43
2 3 1 642.71 19.66
-2 -3 -2 6.55 0.68
-2 -3 -2 9.02 1.22
-2 -3 -2 8.1 0.72
2 3 2 9.98 1
-2 -3 -3 0.91 0.34
-2 -3 -3 0.57 0.33
2 3 3 0.58 0.47
-2 -3 -3 0.44 0.34
-2 -3 -3 1.27 0.74
-2 -3 -4 0.55 0.31
2 3 4 -0.13 0.45
2 3 4 -0.51 0.45
-2 -3 -4 0.27 0.37
-2 -3 -4 -0.39 0.78
-2 -3 -4 0.13 0.26
-2 -3 -5 1.54 0.39
-2 -3 -5 1.06 0.85
2 3 5 0.81 0.52
-2 -3 -5 1.76 0.5
-2 -3 -5 0.61 0.35
-2 -3 -6 76.87 2.83
2 3 6 78.09 3.58
-2 -3 -6 72.62 3.06
-2 -3 -6 71.33 2.79
2 3 6 78.95 2.68
-2 -3 -6 78.65 4.28
-2 -3 -7 7.89 0.67
2 3 7 9.26 1.16
-2 -3 -7 6.13 0.79
-2 -3 -7 8.02 0.65
-2 -3 -7 11.71 1.74
-2 -3 -8 0.14 0.3
-2 -3 -8 0.39 0.42
-2 -3 -8 0.42 0.79
-2 -3 -8 0.81 1.19
-2 -3 -8 0.9 0.31
2 3 9 9.01 0.73
-2 -3 -9 11.24 1.56
-2 -3 -9 9.06 0.56
-2 -3 -9 7.29 0.51
-2 -3 -9 8.59 0.77
2 3 9 8.76 0.98
-2 -3 -9 6.98 1.59
-2 -3 -10 3.48 1.18
2 3 10 4.76 0.49
2 3 10 5.23 0.8
-2 -3 -11 25.02 2.53
2 4 -15 16.87 1.79
2 4 -14 0.71 0.72
-2 -4 14 1.46 1.52
2 4 -13 7.13 1.12
-2 -4 13 4.48 1.76
-2 -4 12 8.59 1.06
-2 -4 12 11.62 1.17
2 4 -12 10.21 1.25
-2 -4 12 5.41 1.79
-2 -4 11 0.35 0.52
-2 -4 11 0.77 1.12
-2 -4 11 0.25 0.59
-2 -4 11 -0.09 0.48
-2 -4 10 0.93 0.6
-2 -4 10 0.72 0.49
-2 -4 10 0.09 0.39
-2 -4 10 0.36 1
-2 -4 9 1.87 0.74
-2 -4 9 2.58 0.66
-2 -4 9 2.02 0.63
2 4 -9 1.51 0.88
-2 -4 9 1.01 1.02
-2 -4 9 1.98 0.52
2 4 -8 14.65 1.76
-2 -4 8 16.84 1.35
-2 -4 8 18.45 2.23
-2 -4 8 19.07 1.32
-2 -4 8 17.55 1.36
-2 -4 8 20.24 1.69
-2 -4 7 19.6 1.41
-2 -4 7 22.4 1.41
-2 -4 7 21.23 1.49
-2 -4 7 20.7 2.29
2 4 -7 21.96 2.1
-2 -4 6 34.85 1.96
2 4 -6 39.21 2.86
-2 -4 6 37.81 1.89
-2 -4 6 31.28 1.87
-2 -4 5 2322.37 68.62
2 4 -5 2298.83 70.22
-2 -4 5 2383.43 68.59
-2 -4 5 2382.88 68.51
-2 -4 4 629.15 19.19
2 4 -4 633.68 20.82
-2 -4 4 627.55 19.11
-2 -4 4 609.96 19.16
2 4 -4 638.31 19.46
-2 -4 4 653.5 19.48
-2 -4 3 119.88 4.34
-2 -4 3 116.06 3.85
-2 -4 3 122.08 4.38
2 4 -3 110.99 5.58
-2 -4 3 113.13 4.36
2 4 -3 113.08 4.61
-2 -4 3 116.09 4.49
-2 -4 2 138.19 5.06
-2 -4 2 153.23 5.18
-2 -4 2 137.8 5.18
2 4 -2 130.45 6.39
2 4 -2 143.12 5.76
-2 -4 2 143.01 5.16
2 4 -2 142.23 5.42
-2 -4 2 151.74 4.6
-2 -4 1 71.2 2.85
-2 -4 1 67.59 2.85
2 4 -1 67.16 3.29
-2 -4 1 70.38 2.92
-2 -4 1 67.59 2.24
2 4 -1 69.65 3.19
2 4 0 7.31 0.96
-2 -4 0 8.44 0.87
-2 -4 0 7.29 1.15
2 4 1 1.16 0.59
-2 -4 -1 0.86 0.64
2 4 2 -0.27 0.5
2 4 2 0.14 0.43
-2 -4 -2 0.73 0.76
-2 -4 -2 0.1 0.47
2 4 3 0.72 0.54
2 4 3 0.55 0.45
-2 -4 -3 0.89 0.47
-2 -4 -3 0.39 0.73
-2 -4 -4 5.89 0.8
2 4 4 5.06 0.98
2 4 4 5.08 0.85
-2 -4 -4 3.16 1.04
2 4 5 190.01 7.08
2 4 5 181.75 6.81
2 4 5 177.18 5.49
-2 -4 -5 182.4 6.36
-2 -4 -5 186.49 7.6
2 4 6 41.89 2.72
-2 -4 -6 40.1 2.12
-2 -4 -6 42.43 1.94
-2 -4 -6 38.27 2.96
-2 -4 -7 15.83 1.02
-2 -4 -7 13.01 1.12
2 4 7 11.49 1.53
-2 -4 -7 12.6 0.96
-2 -4 -7 12.82 1.85
-2 -4 -8 4.72 0.61
2 4 8 4.02 1.2
2 4 8 4.14 1.02
-2 -4 -8 6.17 0.78
-2 -4 -8 7.19 1.65
-2 -4 -8 5.35 0.63
-2 -4 -9 3.5 0.55
2 4 9 3.38 1.09
-2 -4 -9 1.95 0.52
-2 -4 -9 3.32 0.5
2 4 10 10.16 1.78
2 5 -15 11.53 1.5
-2 -5 14 1.5 1.66
2 5 -14 0.93 0.82
2 5 -13 -0.17 0.71
-2 -5 13 -0.46 1.4
-2 -5 12 0.66 0.62
-2 -5 12 0.43 1.2
-2 -5 12 1.18 0.91
-2 -5 12 0.69 0.67
-2 -5 11 22.57 1.67
-2 -5 11 21.89 1.56
-2 -5 11 23.28 1.69
-2 -5 11 19.97 2.73
-2 -5 11 23.29 2.16
-2 -5 10 0.41 0.74
-2 -5 10 -0.38 1.24
-2 -5 10 0.51 0.62
-2 -5 10 0.11 0.47
2 5 -10 0.71 0.92
-2 -5 10 -0.13 0.57
-2 -5 9 0.76 0.71
-2 -5 9 1.98 0.64
-2 -5 9 0.53 0.46
2 5 -9 -0.23 0.92
-2 -5 9 -0.36 1.21
-2 -5 9 0.26 0.51
-2 -5 8 18.01 1.48
-2 -5 8 16.38 2.31
2 5 -8 21.58 2.15
-2 -5 8 18.89 1.39
-2 -5 8 21.35 1.87
-2 -5 8 19.83 1.5
-2 -5 7 121.35 4.75
-2 -5 7 112.73 6.25
-2 -5 7 112.97 4.53
2 5 -7 119.6 5.75
-2 -5 7 116.09 5.02
-2 -5 7 128.19 4.73
-2 -5 6 9.69 1.79
-2 -5 6 14.81 1.25
-2 -5 6 11.88 1.15
2 5 -6 17.18 1.99
-2 -5 5 618.62 18.2
-2 -5 5 574.83 18.18
2 5 -5 558.02 19.69
2 5 -4 0.15 0.56
-2 -5 4 0.91 0.55
2 5 -4 -0.26 1.18
-2 -5 4 0.74 0.45
-2 -5 3 31.05 1.72
-2 -5 3 27.63 1.66
2 5 -3 29.49 2.03
2 5 -3 26.28 1.95
-2 -5 3 25.81 1.2
2 5 -2 19.21 1.56
2 5 -2 16.06 1.52
-2 -5 2 19.39 0.87
2 5 -1 2.64 0.74
2 5 0 40.74 2.5
2 5 1 30.42 2.05
-2 -5 -1 27.67 2.15
2 5 1 28.22 2.05
2 5 2 3.86 0.85
2 5 2 4.82 0.87
-2 -5 -2 5.05 0.78
-2 -5 -2 4.09 1
-2 -5 -3 32.79 1.95
2 5 3 36.61 2.31
-2 -5 -3 33.62 2.56
2 5 3 36.29 2.41
-2 -5 -4 235.63 7.95
-2 -5 -4 219.48 8.94
2 5 4 231.48 8.64
-2 -5 -5 3.07 0.71
2 5 5 2.43 0.91
-2 -5 -5 1.71 1.02
-2 -5 -6 22.01 1.57
2 5 6 20.81 1.83
-2 -5 -6 25.85 2.55
2 5 6 18.72 1.97
2 5 7 5.49 1.26
2 5 7 5.88 1.11
-2 -5 -7 6.38 0.95
-2 -5 -7 5.4 1.37
-2 -5 -8 2.15 1.33
-2 -5 -8 -0.16 0.46
2 5 8 1.79 1.11
-2 -5 -8 0.32 0.6
-2 -5 -8 0.81 0.44
2 5 9 3.29 1.21
2 6 -15 0.62 0.8
-2 -6 14 4.66 2.37
2 6 -14 1.56 0.92
-2 -6 13 -0.27 1.09
-2 -6 13 1.83 0.75
-2 -6 13 0.97 1.57
-2 -6 12 -0.51 0.96
-2 -6 12 -1.84 1.48
-2 -6 12 0.87 0.72
-2 -6 12 -0.15 0.56
-2 -6 11 24.35 1.8
-2 -6 11 26.77 2.46
-2 -6 11 22.97 1.81
-2 -6 11 23.63 1.68
-2 -6 11 20.31 2.88
-2 -6 10 11.95 1.58
-2 -6 10 10.5 1.22
-2 -6 10 8.78 1.06
-2 -6 10 11.17 1.26
-2 -6 10 7.3 1.94
-2 -6 9 9.28 1.38
-2 -6 9 8.39 1.04
-2 -6 9 8.3 1.1
-2 -6 9 7.3 1.91
-2 -6 9 9 1.15
-2 -6 8 9.04 1.31
-2 -6 8 7.96 1.1
-2 -6 8 10.5 2
-2 -6 8 7.41 1.04
-2 -6 7 254.11 9.29
-2 -6 7 259.23 8.85
-2 -6 7 256.36 8.84
-2 -6 7 250.84 10.77
-2 -6 6 10.17 1.14
-2 -6 6 11.94 1.38
-2 -6 6 12.54 1.2
-2 -6 5 43.37 2.37
-2 -6 5 44.55 2.39
2 6 -5 45.48 2.78
-2 -6 5 47.52 2.74
-2 -6 4 1.91 0.63
2 6 -4 2.56 0.9
-2 -6 4 2.38 0.62
-2 -6 4 2.45 0.78
2 6 -4 1.83 0.64
2 6 -3 8.19 1.22
-2 -6 3 8.64 1.1
2 6 -3 8.62 1.06
-2 -6 2 2.07 0.26
2 6 -2 0.91 0.72
-2 -6 2 2.33 0.68
2 6 -2 1.77 0.6
-2 -6 1 13.41 1.27
2 6 -1 13.81 1.52
2 6 0 1.72 0.87
2 6 1 4.53 1.05
-2 -6 -1 5.29 1.11
2 6 2 14.29 1.66
-2 -6 -2 10.73 1.61
2 6 3 59.76 3.5
-2 -6 -3 51.57 2.7
-2 -6 -3 57.75 3.5
2 6 4 140.86 6.34
2 6 4 150.07 6.04
-2 -6 -4 145.35 5.52
-2 -6 -4 137.5 6.45
-2 -6 -5 7.42 1.05
2 6 5 6.97 1.38
2 6 5 6.49 1.18
-2 -6 -5 9.05 1.59
-2 -6 -6 1.95 1.26
2 6 6 -0.25 0.93
2 6 6 1.3 0.79
-2 -6 -6 2.44 0.75
2 6 7 1.09 0.97
-2 -6 -7 3.28 0.84
-2 -6 -8 2.85 0.63
2 6 8 2.31 1.08
-2 -6 -8 2.28 0.7
-2 -7 14 -1.08 2.17
2 7 -14 -0.2 0.74
-2 -7 13 6.89 1.58
-2 -7 13 11.75 2.84
-2 -7 13 8.9 1.29
-2 -7 12 10.35 1.72
-2 -7 12 9.76 1.28
-2 -7 12 9.6 2.35
-2 -7 12 9 1.13
-2 -7 12 9.22 1.26
-2 -7 11 0.51 0.95
-2 -7 11 0.81 0.71
2 7 -11 1.6 1.14
-2 -7 11 0.32 0.7
-2 -7 11 -1.36 1.61
-2 -7 11 0.34 0.62
-2 -7 10 0.24 0.86
-2 -7 10 -0.43 1.39
2 7 -10 -0.52 1.05
-2 -7 10 0.47 0.64
-2 -7 10 -0.17 0.69
-2 -7 9 4.39 1.16
-2 -7 9 7.37 1.07
-2 -7 9 8.43 2.15
2 7 -9 6.11 1.53
-2 -7 9 4.89 0.94
-2 -7 8 0.63 0.67
-2 -7 8 0.73 0.7
2 7 -8 1.1 1.22
-2 -7 8 0.6 0.7
-2 -7 7 6.01 1.19
-2 -7 7 6.18 0.98
2 7 -7 8.57 1.66
-2 -7 7 6.77 0.98
-2 -7 6 1.39 0.61
-2 -7 6 3.41 0.99
-2 -7 6 3.83 0.8
2 7 -6 2.18 0.89
2 7 -6 1.17 1.17
2 7 -5 10.92 1.51
-2 -7 5 12.63 1.26
-2 -7 5 11.74 1.27
2 7 -5 12.86 1.96
-2 -7 5 11.11 1.38
2 7 -4 0.85 0.85
-2 -7 4 1.04 0.71
2 7 -4 3.08 1.33
2 7 -4 2.42 0.73
2 7 -3 -0.42 0.68
2 7 -3 0.32 1.13
-2 -7 3 -0.16 0.6
2 7 -3 -0.36 0.58
2 7 -2 147.52 7.11
2 7 -2 134.35 6.11
-2 -7 2 132.65 4.14
-2 -7 2 147.3 5.69
2 7 -1 -0.22 0.83
-2 -7 1 0.16 0.62
2 7 0 4.3 1.04
2 7 1 -0.23 0.86
-2 -7 -1 0.77 0.85
2 7 2 166.29 7.08
2 7 2 161.89 6.61
-2 -7 -2 153.76 6.72
2 7 3 28.71 2.26
2 7 3 32.03 2.71
-2 -7 -3 29.98 2.03
2 7 4 6.66 1.43
2 7 4 6.76 1.22
-2 -7 -4 4.15 0.88
2 7 5 1.4 1.15
-2 -7 -5 1.03 0.64
2 7 6 3.28 1.22
-2 -7 -6 2.74 0.83
-2 -7 -7 1.48 0.74
-2 -8 14 -0.57 1.94
-2 -8 13 13.31 2.83
-2 -8 13 9.9 1.44
-2 -8 12 6.6 1.62
-2 -8 12 5.93 1.08
-2 -8 12 9.9 1.36
-2 -8 12 7.06 2.24
-2 -8 12 8.51 1.26
-2 -8 11 -0.27 1
-2 -8 11 1.4 0.83
2 8 -11 0.83 1.16
-2 -8 11 0.19 0.7
-2 -8 11 0.94 1.57
-2 -8 10 0.25 1.01
-2 -8 10 -0.51 0.8
-2 -8 10 0.18 0.64
-2 -8 10 1.76 1.51
2 8 -10 -0.55 1.12
-2 -8 9 0.33 0.81
2 8 -9 -0.56 1.03
-2 -8 9 -0.24 0.96
-2 -8 9 -0.17 0.69
-2 -8 8 1.15 0.92
-2 -8 8 1.39 0.75
2 8 -8 0.59 1.04
-2 -8 8 2.27 0.82
-2 -8 7 7.51 1.12
-2 -8 7 8.29 1.39
-2 -8 7 7.73 1.19
2 8 -7 9.49 1.91
2 8 -6 6.27 1.34
-2 -8 6 6.7 1.25
-2 -8 6 5.67 0.92
-2 -8 6 5.7 0.97
2 8 -6 4.72 1.59
2 8 -5 0.97 0.97
-2 -8 5 0.4 0.81
2 8 -5 1.29 1.34
2 8 -5 0.51 0.6
2 8 -4 71.52 4.7
2 8 -4 63.02 2.99
2 8 -4 68.53 4.04
-2 -8 4 67.69 3.64
2 8 -3 12.32 1.8
-2 -8 3 13.69 1.57
2 8 -3 7.96 2.03
2 8 -3 11.85 1.06
-2 -8 2 23.9 2
2 8 -2 23.46 2.9
2 8 -2 24.56 2.39
-2 -8 1 33.3 2.32
2 8 -1 27.9 2.63
2 8 0 2.09 0.97
2 8 0 3.43 1.31
2 8 1 2.42 1.01
2 8 1 1.88 0.96
2 8 2 39.47 3.2
2 8 2 46.33 3.02
2 8 3 -0.29 1.2
2 8 3 -0.61 0.81
-2 -8 -3 -0.46 0.6
2 8 4 0.31 1.11
-2 -8 -4 -0.32 0.64
-2 -8 -5 2.93 0.85
2 8 5 1.62 1.21
-2 -8 -6 1.16 0.77
-2 -9 14 3.5 2.23
-2 -9 13 -0.55 2
-2 -9 13 -0.62 0.83
-2 -9 12 -0.51 1.72
-2 -9 12 -0.82 0.89
2 9 -11 0.87 1.19
-2 -9 11 1.77 0.94
-2 -9 10 0.27 1.02
-2 -9 10 1.09 0.86
2 9 -10 -0.29 1.08
-2 -9 10 -0.37 0.83
-2 -9 9 -0.26 0.94
-2 -9 9 -0.52 0.73
2 9 -9 1.2 1.17
-2 -9 9 -0.18 0.74
-2 -9 8 -0.49 0.85
2 9 -8 0.31 1.23
-2 -9 8 0.17 0.69
-2 -9 8 0.17 0.65
-2 -9 7 3.4 0.95
-2 -9 7 6.43 1.38
2 9 -7 3.25 1.49
-2 -9 7 2.93 0.9
2 9 -6 0.53 0.94
-2 -9 6 -0.23 0.9
2 9 -6 0.34 1.28
2 9 -6 -0.34 0.66
2 9 -5 3.91 1.3
-2 -9 5 1.98 0.94
2 9 -5 0.34 1.32
2 9 -5 2.03 0.63
2 9 -4 47.39 4.16
2 9 -4 65.24 4.1
-2 -9 4 63.36 3.59
2 9 -3 0.57 0.97
-2 -9 3 0.21 0.71
2 9 -3 -0.37 1.48
2 9 -2 -0.57 1.14
-2 -9 2 -0.2 0.69
2 9 -2 -0.38 1.39
2 9 -1 1.46 1.36
2 9 0 9.99 1.9
2 9 0 10.52 1.64
2 9 1 0.31 1.19
2 9 2 0.64 1.03
2 9 3 2.65 1.27
-2 -9 -3 2.39 0.88
-2 -9 -4 1.05 0.72
-2 -9 -5 0.71 0.75
-2 -10 13 0.89 0.89
-2 -10 12 -0.43 0.83
-2 -10 11 1.03 0.77
2 10 -10 3.06 1.49
-2 -10 10 4.21 1.13
2 10 -9 6.98 1.83
-2 -10 9 7.58 1.27
-2 -10 8 1.53 0.87
2 10 -8 -0.33 1.23
-2 -10 7 0.26 1
2 10 -7 -0.69 1.4
2 10 -7 2.34 1.2
-2 -10 7 0.94 0.76
2 10 -7 0.64 0.51
2 10 -6 3.32 1.31
2 10 -6 4.96 1.75
-2 -10 6 4.91 1.32
2 10 -6 5.05 0.63
2 10 -5 0.95 1.21
-2 -10 5 0.24 0.86
2 10 -5 0.36 1.28
2 10 -4 0.64 1.11
2 10 -4 1.51 1.38
-2 -10 3 0.03 0.14
2 10 -3 -0.64 1.26
2 10 -3 -0.39 1.39
-2 -10 3 -0.02 0.16
2 10 -2 1.29 1.4
2 10 -2 1.63 1.66
2 10 -1 -0.33 1.06
2 10 -1 0.83 1.59
2 10 0 -0.68 1.13
2 10 1 3.16 1.47
-2 -10 -3 0.56 0.81
-2 -10 -4 -0.38 0.83
2 11 -12 3.22 1.06
-2 -11 11 0.66 0.84
-2 -11 10 3.87 1.11
-2 -11 9 0.84 0.84
-2 -11 8 0.83 0.85
2 11 -8 1.03 1.43
2 11 -7 0.33 1.25
2 11 -7 -0.36 1.23
2 11 -6 1.35 1.16
2 11 -6 3.7 1.72
2 11 -5 5.31 1.73
2 11 -5 6.85 2.06
2 11 -4 0.36 1.21
2 11 -4 1.18 1.51
2 11 -3 1.79 1.37
2 11 -3 3.26 1.95
2 11 -2 1.44 1.41
2 11 -2 0.85 1.59
3 -12 1 2.15 1.08
3 -12 2 0.22 1
3 -12 3 1.38 1.01
3 -12 4 6.09 1.29
-3 11 3 2.64 0.93
-3 11 2 44.17 2.92
3 -11 -2 39.85 2.77
-3 11 1 1.45 1.49
-3 11 1 3.74 1.12
3 -11 -1 2.68 1.1
-3 11 0 1.83 1.33
-3 11 0 2.39 0.96
3 -11 0 1.84 1.07
-3 11 -1 11.76 2.25
-3 11 -1 10.66 1.46
3 -11 1 10.65 1.57
-3 11 -2 0.34 1.23
-3 11 -2 1.01 0.93
3 -11 2 1.29 1
-3 11 -3 -0.88 0.9
3 -11 3 0.22 0.86
-3 11 -3 -0.2 0.76
-3 11 -3 -0.33 1.15
-3 11 -4 0.22 0.75
-3 11 -5 -0.15 0.42
-3 11 -5 0.22 0.74
-3 11 -5 0.21 0.76
-3 11 -6 5.89 1.2
-3 11 -6 4.29 1.1
-3 11 -6 5.77 0.79
-3 11 -7 2.97 1.02
-3 11 -7 3.01 0.7
-3 11 -8 8.26 0.98
-3 11 -8 8.03 1.35
-3 11 -9 -0.27 0.51
-3 11 -10 0.74 0.62
-3 11 -11 1.76 0.79
-3 11 -12 0.17 0.85
3 -10 -4 11.4 1.48
-3 10 4 10.79 2.04
-3 10 4 13.04 1.69
-3 10 4 13.94 1.53
3 -10 -3 3.15 1.04
-3 10 3 4.95 1.7
-3 10 3 4.13 1.12
-3 10 3 2.77 0.98
-3 10 2 15.37 2.26
-3 10 2 16.8 1.66
-3 10 2 14.47 1.68
3 -10 -2 14.67 1.65
-3 10 1 1.31 1.31
-3 10 1 1.44 0.84
-3 10 1 2.48 1.01
3 -10 -1 1.71 0.86
-3 10 0 -0.33 1.3
-3 10 0 -0.2 0.78
-3 10 0 -0.36 0.71
3 -10 0 -0.39 0.79
-3 10 -1 0.32 1.13
3 -10 1 0.2 0.91
-3 10 -1 0.18 0.7
3 -10 1 0.61 0.79
-3 10 -2 3.88 1.37
3 -10 2 0.63 0.89
-3 10 -2 1.59 0.31
-3 10 -2 1.23 0.26
-3 10 -2 2.42 0.89
-3 10 -2 0.56 0.66
3 -10 2 1.02 0.87
-3 10 -3 6.9 1.6
3 -10 3 6.4 1.35
-3 10 -3 5.71 0.55
-3 10 -3 6.41 1.21
-3 10 -4 -0.18 0.38
3 -10 4 -0.24 1.01
-3 10 -4 -0.2 0.72
3 -10 5 -0.75 1.1
-3 10 -5 -0.15 0.37
-3 10 -5 0.2 0.66
-3 10 -5 -0.57 0.75
3 -10 6 16.61 2.07
-3 10 -6 15.46 1.17
-3 10 -6 15.49 1.68
-3 10 -6 13.02 1.54
-3 10 -7 -0.31 0.5
-3 10 -7 -0.19 0.7
-3 10 -7 0.2 0.64
-3 10 -8 0.12 0.58
-3 10 -8 -0.4 0.81
-3 10 -8 0.58 0.77
-3 10 -9 1.35 0.76
-3 10 -9 3.31 0.82
-3 10 -9 3.31 1.05
-3 10 -10 3.47 0.83
-3 10 -10 2.89 0.9
-3 10 -10 4.03 1.11
-3 10 -11 -0.48 0.67
-3 10 -11 0.19 0.74
-3 10 -12 -0.17 0.65
-3 9 6 0.95 0.82
-3 9 6 0.32 1.23
3 -9 -5 -0.16 0.76
-3 9 5 -0.19 0.76
-3 9 5 0.3 0.67
-3 9 5 -0.31 1.25
-3 9 4 12.19 2.07
3 -9 -4 12.29 1.44
-3 9 4 13.15 1.58
-3 9 4 11.83 1.38
-3 9 3 8.33 1.7
-3 9 3 6.96 1.14
-3 9 3 6.84 1.21
3 -9 -3 8.53 1.2
-3 9 2 -0.29 1.24
-3 9 2 0.57 0.69
-3 9 2 -0.16 0.66
3 -9 -2 0.35 0.67
-3 9 1 0.29 1.05
3 -9 -1 1.49 0.86
-3 9 1 0.16 0.64
-3 9 1 0.57 0.63
-3 9 0 5.68 1.5
-3 9 0 2.15 0.79
3 -9 0 2.87 0.93
-3 9 0 2.81 0.92
3 -9 0 3.95 1
-3 9 -1 23.59 1.88
-3 9 -1 22.05 2.44
3 -9 1 18.28 1.8
3 -9 1 18.88 1.86
3 -9 2 0.19 0.74
-3 9 -2 0.11 0.27
-3 9 -2 0.08 0.21
-3 9 -2 -0.18 0.65
-3 9 -2 0.51 0.7
3 -9 2 0.38 0.7
-3 9 -2 -0.26 1.02
-3 9 -3 7.98 1.58
3 -9 3 7.69 1.36
-3 9 -3 7.21 0.58
-3 9 -3 6.16 1.11
3 -9 4 0.88 0.94
-3 9 -4 0.8 0.37
-3 9 -4 0.69 0.68
-3 9 -4 0.72 0.73
3 -9 5 3.02 1.17
-3 9 -5 2.18 0.52
-3 9 -5 4.38 0.94
-3 9 -5 3.21 0.83
3 -9 6 0.99 0.99
-3 9 -6 2.59 0.6
-3 9 -6 1.94 0.74
-3 9 -6 3.04 0.85
-3 9 -7 19.02 1.77
-3 9 -7 22.11 1.51
-3 9 -7 21.37 1.88
3 -9 7 25.57 2.53
3 -9 8 -0.55 1.08
-3 9 -8 0.47 0.52
-3 9 -8 1.06 0.64
-3 9 -8 1.69 0.84
-3 9 -9 -0.13 0.54
-3 9 -9 0.7 0.75
-3 9 -9 1.16 0.81
-3 9 -10 2.11 1.22
-3 9 -10 0.14 0.57
-3 9 -10 0.18 0.66
-3 9 -10 1.78 0.86
-3 9 -11 5.89 1.08
-3 9 -11 3.89 1.34
-3 9 -11 6.01 1.13
-3 9 -11 3.81 1.09
-3 9 -12 0.18 0.66
-3 9 -12 -0.21 0.8
-3 9 -12 -0.85 1.13
-3 9 -13 -0.39 0.76
-3 8 7 2.64 1.3
-3 8 7 4.61 0.96
3 -8 -6 2.31 0.78
-3 8 6 1.42 1.11
-3 8 6 1.4 0.83
-3 8 6 0.75 0.57
3 -8 -5 0.48 0.67
-3 8 5 -0.83 1.11
-3 8 5 -0.35 0.73
-3 8 5 -0.27 0.65
3 -8 -4 7.06 1.09
-3 8 4 6.29 1.14
-3 8 4 6.87 0.97
-3 8 4 7.4 1.09
-3 8 4 6.53 1.54
-3 8 3 0.26 0.99
-3 8 3 0.17 0.63
-3 8 3 -0.29 0.6
3 -8 -3 -0.33 0.63
-3 8 2 1.9 0.8
-3 8 2 1.02 1.05
-3 8 2 1.17 0.72
3 -8 -2 1.03 0.73
-3 8 1 0.25 0.83
-3 8 1 -0.17 0.57
-3 8 1 0.3 0.6
3 -8 -1 -0.18 0.59
3 -8 0 5.09 1.06
-3 8 0 5.12 0.98
-3 8 0 7.33 1.54
3 -8 0 6.28 1.1
-3 8 -1 22.25 1.82
-3 8 -1 18.98 1.64
-3 8 -1 20.63 2.17
3 -8 1 16.3 1.65
3 -8 1 18.65 1.68
-3 8 -2 1.33 0.93
3 -8 2 1.42 0.81
-3 8 -2 1.68 0.26
-3 8 -2 2.33 0.8
3 -8 3 4.56 1.05
-3 8 -3 7.47 0.59
-3 8 -3 7.89 1.11
-3 8 -3 8.57 1.15
-3 8 -4 18.62 1.67
-3 8 -4 19.04 1.12
-3 8 -4 19.34 1.66
3 -8 4 21.59 2.01
-3 8 -5 136.54 5.67
-3 8 -5 139.24 4.88
-3 8 -5 143 5.74
3 -8 5 142.24 6.23
-3 8 -6 42.69 2.07
-3 8 -6 39.5 2.47
-3 8 -6 37.47 2.47
3 -8 6 41.36 2.96
-3 8 -7 53.04 2.94
-3 8 -7 48.12 2.45
-3 8 -7 57.02 3.09
3 -8 7 53.41 3.5
3 -8 8 -0.26 0.94
-3 8 -8 1.27 0.61
-3 8 -8 0.18 0.7
-3 8 -8 0.32 0.58
3 -8 9 0.28 1.12
-3 8 -9 2.22 0.66
-3 8 -9 1.8 0.78
-3 8 -9 2.88 1.31
-3 8 -9 2.27 0.74
-3 8 -10 4.58 1.04
-3 8 -10 4.36 0.86
-3 8 -10 2.1 0.81
-3 8 -10 1.04 1.07
-3 8 -11 3.08 0.89
-3 8 -11 3.01 0.94
-3 8 -11 3.08 1.39
-3 8 -12 0.39 0.87
-3 8 -12 -0.18 0.67
-3 8 -12 -0.3 1.1
-3 8 -13 1.58 0.99
-3 7 9 14.71 2.06
-3 7 8 0.84 1.18
-3 7 8 1.91 1.21
-3 7 8 0.6 0.63
-3 7 7 -0.26 0.89
-3 7 7 0.2 0.47
-3 7 7 0.16 0.65
-3 7 7 -0.25 1.07
3 -7 -6 -0.15 0.58
-3 7 6 -0.11 0.55
-3 7 6 -0.25 0.9
-3 7 6 -0.48 0.79
-3 7 6 -0.43 0.87
3 -7 -5 7.57 1.07
-3 7 5 8.95 1.24
-3 7 5 11.98 1.19
-3 7 5 9.11 1.6
-3 7 4 1.89 0.99
3 -7 -4 3.23 0.83
-3 7 4 2.39 0.78
-3 7 4 3.68 0.79
-3 7 4 4.77 1.01
-3 7 3 7.8 0.95
-3 7 3 8.77 1.55
-3 7 3 9.23 1.21
-3 7 3 7.53 1
3 -7 -3 8.29 1.12
-3 7 2 8.38 1.45
-3 7 2 4.09 0.94
3 -7 -2 6.43 1.06
-3 7 2 7.17 1.01
-3 7 1 92.24 4.07
3 -7 -1 93.04 4.35
-3 7 1 97.21 4.74
3 -7 -1 94.22 4.1
-3 7 0 26.7 1.9
3 -7 0 27 2.09
-3 7 0 31.44 2.46
3 -7 0 26.57 1.9
-3 7 -1 105.6 4.53
3 -7 1 95.4 4.43
-3 7 -1 111.93 5.02
3 -7 1 102.46 4.47
-3 7 -2 93.41 4.22
-3 7 -2 93.99 3.05
3 -7 2 99.48 4.14
-3 7 -2 96.24 4.59
3 -7 2 89.23 4.23
-3 7 -3 18.52 1.59
-3 7 -3 18.54 0.98
-3 7 -3 18.67 1.59
3 -7 3 18.88 1.5
3 -7 3 19.51 1.77
3 -7 4 6.67 1.26
-3 7 -4 8.17 0.71
-3 7 -4 8.22 1.07
3 -7 4 7.53 1.01
-3 7 -4 9.33 1.13
3 -7 4 6.95 1
-3 7 -5 95.99 4.28
-3 7 -5 101.18 3.7
-3 7 -5 98.16 4.34
3 -7 5 98.73 4.36
3 -7 5 100.75 4.78
3 -7 6 2.94 1.07
-3 7 -6 2.86 0.59
3 -7 6 3 0.79
-3 7 -6 4.7 0.88
-3 7 -6 2.48 0.77
3 -7 7 10.5 1.54
-3 7 -7 13.69 1.34
-3 7 -7 13.02 1.14
-3 7 -7 12.58 1.34
-3 7 -7 9.69 1.58
3 -7 8 -0.31 0.71
-3 7 -8 0.47 0.46
-3 7 -8 0.24 1.02
-3 7 -8 -0.44 0.59
-3 7 -8 0.98 0.71
3 -7 8 -0.25 1.09
3 -7 9 0.27 0.97
-3 7 -9 -0.17 0.67
-3 7 -9 -0.27 0.6
-3 7 -9 1.48 0.7
-3 7 -9 0.26 1.03
3 -7 9 -0.31 0.54
3 -7 10 1.12 1.07
-3 7 -10 0.82 1.05
-3 7 -10 0.9 0.64
-3 7 -10 0.45 0.63
-3 7 -10 -0.35 0.74
3 -7 10 0.48 0.56
-3 7 -11 1.49 0.65
-3 7 -11 2.14 0.83
-3 7 -11 2.05 1.04
-3 7 -12 10.68 1.41
-3 7 -12 10.08 1.43
-3 7 -12 12.58 2.14
-3 7 -13 9.97 1.46
3 -6 -10 1.84 1.12
-3 6 10 3.54 1.35
-3 6 10 4.32 1.7
-3 6 9 10.44 1.73
-3 6 9 7.08 1.72
-3 6 8 -0.95 1.03
-3 6 8 0.57 1.06
3 -6 -8 0.71 0.63
-3 6 7 14.69 1.43
-3 6 7 13.59 1.88
3 -6 -7 14.28 1.57
-3 6 7 17.4 1.95
-3 6 7 12.34 1.07
3 -6 -7 12.73 1.32
3 -6 -6 7.16 0.99
-3 6 6 5.56 1.24
-3 6 6 7.08 1.05
-3 6 6 5.39 0.75
-3 6 6 5.49 1.31
3 -6 -5 2.92 0.76
-3 6 5 4.31 1.13
-3 6 5 2.66 0.8
-3 6 5 2.35 0.7
-3 6 4 27.92 1.96
-3 6 4 25.21 1.68
3 -6 -4 23.85 1.83
-3 6 4 25.84 2.18
-3 6 4 27.25 2.03
-3 6 3 19.26 1.65
3 -6 -3 23.38 1.8
-3 6 3 21.58 1.54
-3 6 3 24.57 1.71
-3 6 3 19.96 1.89
-3 6 2 1.14 0.69
-3 6 2 1.66 0.8
-3 6 2 1.33 0.6
3 -6 -1 597.35 18.58
-3 6 1 606.01 18.66
-3 6 1 595.01 19.2
-3 6 0 23.56 1.75
3 -6 0 25.34 1.69
-3 6 0 23.12 1.66
3 -6 0 23.34 1.62
3 -6 0 21.75 1.93
-3 6 0 25.49 1.99
3 -6 0 21.64 1.78
-3 6 -1 31.44 2.04
-3 6 -1 30.83 2.15
3 -6 1 33.93 1.99
3 -6 1 30.29 2.23
3 -6 1 32.57 2.04
-3 6 -2 21.97 1.69
-3 6 -2 23.6 1.02
-3 6 -2 26.11 1.77
3 -6 2 25.36 1.71
3 -6 2 25.73 1.82
3 -6 2 21.83 1.83
-3 6 -3 26.97 1.82
-3 6 -3 25.65 1.22
-3 6 -3 26.44 1.82
3 -6 3 25.55 1.72
3 -6 3 22.75 1.76
3 -6 3 25.18 1.91
-3 6 -4 50.13 2.67
-3 6 -4 47.05 2.08
-3 6 -4 48.73 2.69
3 -6 4 51.71 1.93
3 -6 4 52.36 2.66
3 -6 4 48.27 2.62
3 -6 4 50.63 2.91
3 -6 5 5.55 1.12
-3 6 -5 7.68 0.75
-3 6 -5 6.77 0.94
-3 6 -5 4.36 0.83
3 -6 5 6.73 0.96
-3 6 -6 37.75 2.24
3 -6 6 38.48 2.25
-3 6 -6 34.67 1.91
-3 6 -6 40.24 2.35
3 -6 6 40.25 2.74
-3 6 -6 39.38 2.87
-3 6 -7 20.09 1.61
-3 6 -7 21.32 1.48
-3 6 -7 21.36 1.71
-3 6 -7 18.34 2.04
3 -6 7 21.36 2.11
3 -6 8 15.39 1.85
3 -6 8 15.09 1.42
-3 6 -8 14.22 1.38
-3 6 -8 14.98 1.31
-3 6 -8 13.54 1.43
-3 6 -8 15.92 1.99
-3 6 -9 0.97 0.64
-3 6 -9 0.41 0.61
3 -6 9 0.49 0.97
-3 6 -9 0.53 1.14
3 -6 9 0.14 0.6
-3 6 -9 0.32 0.62
3 -6 10 1.82 1.11
-3 6 -10 2.17 0.76
-3 6 -10 2.04 0.78
-3 6 -10 3.4 1.3
-3 6 -10 2.47 0.83
3 -6 10 2.04 0.72
-3 6 -11 2.59 0.9
-3 6 -11 0.85 0.72
3 -6 11 1.34 0.75
-3 6 -11 -0.3 1.32
-3 6 -12 9.32 1.32
3 -6 12 11.06 1.7
3 -6 12 7.93 1.16
-3 6 -12 6.85 1.84
-3 6 -13 14.24 1.74
3 -5 -11 5.62 1.2
-3 5 11 8.84 1.64
-3 5 11 6.35 2
3 -5 -10 1.7 0.92
-3 5 10 0.23 0.88
-3 5 10 1.79 1.4
3 -5 -9 3.45 1
3 -5 -9 4.79 0.85
-3 5 9 4.13 1.17
-3 5 9 2.88 1.31
3 -5 -8 27.09 1.84
3 -5 -8 28.18 2.12
-3 5 8 25.97 2.69
-3 5 8 30.13 2.33
-3 5 7 0.51 0.93
-3 5 7 0.57 0.76
-3 5 7 3.3 0.76
3 -5 -7 1.98 0.66
3 -5 -7 2.49 0.77
-3 5 6 19.41 1.52
3 -5 -6 16.31 1.44
3 -5 -6 17.13 1.55
-3 5 6 19.49 1.3
-3 5 6 17.9 1.98
3 -5 -6 19.79 1.55
-3 5 6 17.18 1.72
3 -5 -5 0.55 0.59
-3 5 5 -0.17 0.74
-3 5 5 -0.26 0.57
-3 5 5 -0.09 0.43
-3 5 4 28.83 1.9
-3 5 4 27.32 1.64
-3 5 4 25.63 2.07
-3 5 4 22.53 1.92
-3 5 3 128.08 5.11
-3 5 3 124.27 4.82
-3 5 3 136.42 5.33
-3 5 3 134.82 5.46
3 -5 -2 139.49 5.41
-3 5 2 146.64 5.38
3 -5 -2 150.64 5.38
-3 5 2 148.67 5.8
3 -5 -2 143.84 5.72
3 -5 -1 30.99 1.77
-3 5 1 31.18 2.07
3 -5 -1 34.17 1.91
-3 5 1 31.17 1.87
3 -5 -1 31.47 1.82
3 -5 -1 30.65 2.05
-3 5 0 63.75 3.05
3 -5 0 59.79 2.87
3 -5 0 68.96 3.28
3 -5 0 53.22 3.3
3 -5 0 67.45 2.95
-3 5 0 67.28 3.22
3 -5 0 66.36 2.87
-3 5 -1 12.55 1.17
3 -5 1 10.53 0.98
3 -5 1 10.09 1.03
3 -5 1 13.08 1.11
-3 5 -1 8.54 0.99
3 -5 1 9.82 1.32
-3 5 -1 11.5 1.18
-3 5 -2 58.77 2.89
-3 5 -2 58.44 2.16
3 -5 2 63.31 2.82
-3 5 -2 59.26 2.88
3 -5 2 63.15 2.86
3 -5 2 61.17 2.24
3 -5 2 59.7 3.2
3 -5 2 59.49 2.9
-3 5 -3 79.94 3.51
-3 5 -3 75.48 2.87
3 -5 3 80.16 3.39
-3 5 -3 82.09 3.53
3 -5 3 82.33 3.46
3 -5 3 74.53 3.71
3 -5 3 82.5 3.63
-3 5 -4 26.02 1.74
-3 5 -4 26.3 1.4
3 -5 4 22.56 1.55
-3 5 -4 26 1.75
3 -5 4 24.07 1.65
3 -5 4 26.87 1.91
3 -5 4 24.73 1.87
-3 5 -5 53.88 2.45
-3 5 -5 58.07 2.87
3 -5 5 53.73 2.7
-3 5 -5 59.65 3.53
-3 5 -5 54.11 2.75
3 -5 5 57.58 3.16
-3 5 -6 46.93 2.61
-3 5 -6 51.08 2.45
3 -5 6 53.91 2.52
-3 5 -6 52.87 2.75
3 -5 6 44.49 2.52
-3 5 -6 53.69 3.42
3 -5 6 58.5 3.17
-3 5 -7 204.08 7.28
-3 5 -7 190.94 8.3
-3 5 -7 204.88 7.16
-3 5 -7 207.4 7.45
3 -5 7 207.87 7.94
3 -5 8 282.24 9.75
-3 5 -8 286.59 9.74
-3 5 -8 286.46 9.75
-3 5 -8 297.69 10
3 -5 8 291.99 9.77
-3 5 -8 284.5 11.02
-3 5 -9 0.88 0.6
-3 5 -9 1.45 0.67
-3 5 -9 1.08 0.71
3 -5 9 0.13 0.67
-3 5 -9 3.28 1.39
3 -5 9 0.39 0.61
-3 5 -10 2.43 0.74
3 -5 10 2.03 0.71
-3 5 -10 5.55 1.65
-3 5 -11 3.94 0.96
3 -5 11 3.84 0.8
-3 5 -11 3.45 1.31
-3 5 -12 2.57 0.88
3 -5 12 2.38 0.72
-3 5 -13 0.44 0.77
3 -5 13 0.72 0.59
-3 4 12 -0.44 1.58
3 -4 -12 -0.37 0.76
-3 4 12 0.72 0.99
3 -4 -11 1.81 0.92
-3 4 11 1.33 1
-3 4 11 -0.4 1.32
3 -4 -10 4.53 1.02
-3 4 10 2.83 0.99
-3 4 10 5.34 1.74
3 -4 -10 4.38 0.75
3 -4 -10 5.92 1.1
3 -4 -9 2.18 0.78
-3 4 9 1.1 0.83
3 -4 -9 2.64 0.69
-3 4 9 2.57 1.29
3 -4 -9 2.68 0.79
3 -4 -8 0.64 0.68
3 -4 -8 0.35 0.53
-3 4 8 -0.17 0.64
-3 4 8 -0.19 0.77
3 -4 -8 -0.32 0.61
-3 4 8 0.86 0.93
3 -4 -7 0.36 0.53
-3 4 7 0.62 0.63
3 -4 -7 0.61 0.58
-3 4 7 -0.26 0.9
-3 4 7 0.18 0.76
-3 4 6 8.85 1.12
3 -4 -6 7.23 1.01
-3 4 6 6.41 1.34
3 -4 -6 6.86 0.93
-3 4 5 0.7 0.58
-3 4 5 0.59 0.5
-3 4 5 0.25 0.38
3 -4 -5 0.48 0.5
3 -4 -5 -0.1 0.41
-3 4 4 0.13 0.59
-3 4 4 -0.12 0.47
3 -4 -4 0.65 0.51
-3 4 4 0.18 0.37
3 -4 -4 0.08 0.38
-3 4 4 0.74 0.79
3 -4 -4 0.81 0.49
3 -4 -4 0.12 0.4
3 -4 -4 0.26 0.48
-3 4 3 130.99 5.3
3 -4 -3 148.71 5.27
-3 4 3 141.83 5.14
3 -4 -3 144.42 5.07
3 -4 -3 140.22 5.49
-3 4 3 156.83 5.57
-3 4 3 137.99 5.79
3 -4 -2 108.13 4.18
-3 4 2 109.38 4.13
3 -4 -2 109.26 4.07
-3 4 2 103.79 4.23
3 -4 -2 101.04 4.41
3 -4 -1 36.26 1.83
-3 4 1 37.49 2.15
3 -4 -1 40.35 2.1
3 -4 -1 43.59 1.78
3 -4 -1 41.35 2.05
-3 4 1 39.47 2.1
3 -4 -1 39.46 2.32
3 -4 0 4.23 0.63
-3 4 0 4.61 0.73
3 -4 0 3.25 0.5
-3 4 0 2.23 0.56
3 -4 0 3.58 0.61
3 -4 0 4.39 1.08
3 -4 0 5.25 0.66
3 -4 0 2.96 0.65
3 -4 1 11.03 0.96
-3 4 -1 11.32 1.04
3 -4 1 9.28 0.94
-3 4 -1 9.79 1.03
3 -4 1 9.86 1.34
3 -4 1 10.54 0.96
3 -4 2 2.29 0.6
-3 4 -2 2 0.36
-3 4 -2 3.3 0.63
-3 4 -2 2.24 0.62
3 -4 2 1.54 0.7
3 -4 2 1.75 0.48
3 -4 2 2.67 0.55
3 -4 3 41.44 2.6
-3 4 -3 44.76 2.35
-3 4 -3 44.98 1.96
3 -4 3 46.91 2.28
-3 4 -3 43.88 2.34
3 -4 3 46.05 2.29
3 -4 3 44.95 2.39
-3 4 -4 12.32 1.13
-3 4 -4 9.95 1.44
-3 4 -4 10.17 0.91
-3 4 -4 9.84 1.06
3 -4 4 11.6 1.05
3 -4 4 11.69 1.23
3 -4 4 8.88 1.16
-3 4 -5 -0.09 0.37
-3 4 -5 0.12 0.43
-3 4 -5 -0.13 0.46
-3 4 -5 -0.23 0.95
3 -4 5 0.11 0.41
3 -4 5 -0.15 0.62
3 -4 5 0.5 0.42
3 -4 5 -0.48 0.56
3 -4 6 201.5 7.28
-3 4 -6 210.82 7.3
-3 4 -6 205.42 7.16
3 -4 6 205.96 7.08
3 -4 6 208.22 6.82
-3 4 -6 212.52 7.47
-3 4 -6 209.17 8.47
-3 4 -7 37.6 2.13
3 -4 7 37.71 2.14
3 -4 7 35.55 2.08
-3 4 -7 35.32 2.09
3 -4 7 34.27 1.9
3 -4 7 38.41 1.76
-3 4 -7 33.22 2.2
-3 4 -7 36.1 2.86
3 -4 8 167.93 5.45
3 -4 8 168.16 6.14
-3 4 -8 167.55 6.29
3 -4 8 163.9 5.81
3 -4 8 164.69 6.13
-3 4 -8 162.22 7.34
3 -4 9 49.38 2.61
-3 4 -9 49.08 2.84
3 -4 9 57.95 2.77
-3 4 -9 54.03 3.71
-3 4 -10 11.97 1.39
3 -4 10 13.57 1.25
-3 4 -10 11.11 1.88
-3 4 -11 9.49 1.32
3 -4 11 8.68 1.07
-3 4 -11 8.72 1.89
-3 4 -12 0.21 0.78
3 -4 12 0.39 0.56
-3 4 -13 6.66 1.32
3 -4 13 3.72 0.83
3 -3 -13 1.56 0.99
-3 3 13 1.16 0.91
3 -3 -12 2.58 0.95
-3 3 12 2.35 0.94
-3 3 12 1.31 1.55
3 -3 -12 1.87 0.78
3 -3 -11 1.02 0.72
-3 3 11 1.17 0.83
-3 3 11 -0.39 1.23
3 -3 -11 1.16 0.73
3 -3 -10 0.16 0.64
3 -3 -10 0.09 0.45
-3 3 10 -0.53 0.77
-3 3 10 -0.71 1.3
3 -3 -9 6.36 1.1
-3 3 9 4.76 1.17
-3 3 9 5.34 1.01
3 -3 -9 4.66 0.92
-3 3 9 7.34 1.65
3 -3 -9 5.54 0.79
3 -3 -8 106.61 4.6
3 -3 -8 110.64 4.28
3 -3 -8 115.4 4.73
-3 3 8 102.01 5.64
-3 3 8 114.66 4.65
-3 3 8 101.89 4.87
3 -3 -7 2.24 0.66
3 -3 -7 1.97 0.7
3 -3 -7 0.98 0.52
-3 3 7 1.27 0.64
-3 3 7 0.26 0.97
-3 3 7 1.49 0.78
3 -3 -7 1.7 0.5
3 -3 -6 4.12 0.73
3 -3 -6 3.46 0.7
-3 3 6 3.19 0.72
3 -3 -6 3.46 0.44
3 -3 -6 3.47 0.73
-3 3 6 5.65 1.26
3 -3 -6 3.7 0.63
-3 3 6 2.5 0.79
3 -3 -5 91.22 3.97
3 -3 -5 101.93 3.26
3 -3 -5 104.34 3.93
-3 3 5 93.94 4.29
3 -3 -5 102.73 4.15
3 -3 -5 103.68 3.66
-3 3 5 93.89 3.97
3 -3 -4 50.6 2.47
3 -3 -4 46.32 1.6
3 -3 -4 51.64 2.39
3 -3 -4 49.09 2.51
3 -3 -4 56.95 2.26
3 -3 -4 54.8 2.62
-3 3 4 59.34 2.53
-3 3 3 6.53 0.77
-3 3 3 5.28 0.69
3 -3 -3 6.7 0.78
3 -3 -3 5.78 0.79
3 -3 -3 5.51 0.68
3 -3 -3 5.29 0.74
-3 3 3 6.82 1.18
3 -3 -3 5.14 0.78
-3 3 2 4.22 0.58
-3 3 2 3.12 0.64
-3 3 2 3.82 0.63
3 -3 -2 4.13 0.64
3 -3 -2 3.91 0.56
3 -3 -2 4.17 0.64
-3 3 1 2.06 0.46
3 -3 -1 1.44 0.54
3 -3 -1 1.61 0.33
-3 3 1 3.55 0.65
3 -3 -1 2.47 0.52
3 -3 -1 2.41 0.51
3 -3 -1 1.41 0.47
-3 3 0 32.38 1.83
3 -3 0 30.65 2.34
3 -3 0 31.06 1.1
3 -3 0 28.97 1.69
-3 3 0 29.82 1.74
3 -3 0 33.29 1.72
3 -3 0 30.23 1.92
3 -3 0 28.36 1.42
3 -3 1 6.08 0.73
3 -3 1 4.6 0.6
3 -3 1 6.16 0.45
-3 3 -1 5.3 0.73
-3 3 -1 6.13 0.79
3 -3 1 5.28 0.9
3 -3 1 6.21 1.13
3 -3 1 6.38 0.75
-3 3 -2 501.8 15.35
-3 3 -2 476.94 14.77
3 -3 2 500.06 14.6
3 -3 2 461.87 15.03
-3 3 -2 493.5 15.33
3 -3 2 484.5 16.12
3 -3 2 509.02 15.11
-3 3 -3 234.23 7.82
3 -3 3 232.08 7.67
-3 3 -3 230.06 7.44
3 -3 3 232.38 7.27
3 -3 3 222.13 7.48
-3 3 -3 226.53 7.87
3 -3 3 222.49 8.41
3 -3 3 225.78 7.78
3 -3 3 227.59 7.73
3 -3 4 6.58 0.81
-3 3 -4 6.58 0.77
-3 3 -4 7.68 0.89
3 -3 4 6.83 0.71
3 -3 4 5.01 0.62
3 -3 4 7.95 1.11
3 -3 4 4.89 0.77
3 -3 5 8.42 0.97
3 -3 5 8.24 0.77
-3 3 -5 9.02 0.92
3 -3 5 10.14 0.95
3 -3 5 12.02 0.97
3 -3 5 11.39 0.87
3 -3 5 11.19 1.05
3 -3 6 336.8 10.47
3 -3 6 324.51 11.01
-3 3 -6 334.27 11.06
3 -3 6 340.48 10.81
3 -3 6 347.22 10.92
3 -3 6 347.83 10.52
3 -3 7 25.11 1.26
3 -3 7 25.59 1.73
-3 3 -7 24.05 1.77
3 -3 7 24.3 1.52
3 -3 7 28.1 1.76
3 -3 7 29.26 1.33
3 -3 7 26.92 1.7
3 -3 8 4.72 0.8
-3 3 -8 5.63 0.97
3 -3 8 3.02 0.76
3 -3 8 7.6 0.91
3 -3 8 4.73 0.66
-3 3 -9 84.88 4.18
3 -3 9 88.5 3.74
3 -3 9 92.63 4.05
3 -3 9 93.16 3.56
3 -3 9 97.36 3.9
3 -3 10 7.26 1.13
3 -3 10 4.6 0.82
-3 3 -10 4.65 1.45
3 -3 11 1.85 0.62
3 -3 12 1.37 0.58
3 -3 13 0.38 0.64
3 -2 -13 0.49 0.65
-3 2 13 0.48 1.74
3 -2 -12 0.16 0.69
-3 2 12 0.43 1.62
3 -2 -12 0.8 0.68
3 -2 -11 0.63 0.7
-3 2 11 0.39 1.39
3 -2 -11 -0.16 0.61
3 -2 -10 38.34 2.4
3 -2 -10 32.62 2.25
-3 2 10 36.78 3.43
-3 2 10 40.82 2.7
3 -2 -9 12.5 1.3
-3 2 9 12.93 2.19
3 -2 -9 12.73 1.31
-3 2 9 11.9 1.5
3 -2 -8 14.77 1.37
3 -2 -8 15.37 1.05
3 -2 -8 13.29 1.06
3 -2 -8 12.81 1.09
3 -2 -8 12.15 1.3
-3 2 8 15 2.02
-3 2 8 14.38 1.48
3 -2 -7 0.4 0.57
-3 2 7 0.21 0.47
3 -2 -7 0.31 0.29
3 -2 -7 0.39 0.3
-3 2 7 -0.27 0.84
3 -2 -7 0.4 0.52
3 -2 -7 0.1 0.41
3 -2 -7 -0.09 0.4
-3 2 7 0.15 0.59
-3 2 6 23.32 1.49
3 -2 -6 25.86 1.51
3 -2 -6 22.63 1.54
3 -2 -6 24.24 1.19
3 -2 -6 23.71 1.25
-3 2 6 26.42 2.36
-3 2 6 26.21 1.87
3 -2 -6 24.63 1.63
3 -2 -5 40.45 2.24
3 -2 -5 42.1 2.08
3 -2 -5 40.11 2.16
3 -2 -5 39.98 1.61
3 -2 -5 39.41 2.22
3 -2 -5 43.34 1.86
3 -2 -5 45.37 2.29
-3 2 5 45.57 2.5
-3 2 5 41.65 1.96
3 -2 -4 10.46 1.03
3 -2 -4 10.41 1.02
3 -2 -4 11.02 0.98
3 -2 -4 10.64 0.58
3 -2 -4 9.58 0.97
3 -2 -4 10.47 0.84
3 -2 -4 10.88 1.11
-3 2 4 10.41 1.11
3 -2 -4 9.38 0.95
-3 2 4 11.5 0.88
3 -2 -3 171.2 5.95
3 -2 -3 171.39 5.74
3 -2 -3 164.78 6.24
-3 2 3 168.87 6.98
-3 2 3 172.92 5.59
3 -2 -2 20.8 1.43
3 -2 -2 23.38 1.42
3 -2 -2 21.02 0.88
3 -2 -2 18.16 1.24
3 -2 -2 19.81 1.59
-3 2 2 20.61 1.02
3 -2 -1 21.94 0.95
3 -2 -1 23.3 1.37
3 -2 -1 22.12 1.72
3 -2 0 481.76 15.11
3 -2 0 491.38 14.53
3 -2 0 489.09 14.51
3 -2 0 483.78 15.13
3 -2 0 494.67 15.13
3 -2 0 510.2 16.49
3 -2 0 505.93 15.44
3 -2 0 491.21 15.91
3 -2 1 2.26 0.39
3 -2 1 1.44 0.42
3 -2 1 1.63 0.34
3 -2 1 2.83 0.55
3 -2 1 1.73 0.8
3 -2 2 44.16 2.15
3 -2 2 48.99 2.33
3 -2 2 47.48 2.38
-3 2 -2 48.33 2.17
3 -2 2 52.15 2.04
3 -2 2 48.44 2.19
3 -2 2 49.94 2.97
3 -2 3 373.79 11.63
3 -2 3 368.09 11.97
-3 2 -3 378.06 11.84
3 -2 3 384.22 11.61
3 -2 3 380.02 11.68
-3 2 -3 358.71 13.09
3 -2 3 369.29 12.75
3 -2 4 68.45 2.75
3 -2 4 62.97 3.05
-3 2 -4 71.35 3.06
3 -2 4 73.04 2.89
3 -2 4 71.49 2.75
3 -2 4 70.11 3.07
-3 2 -4 66.59 3.96
3 -2 4 69.28 3.57
3 -2 5 27.43 1.41
3 -2 5 28.49 1.63
-3 2 -5 28.43 1.77
3 -2 5 29.53 1.77
3 -2 5 30.75 1.68
-3 2 -5 27.41 2.45
3 -2 5 29.2 1.44
3 -2 6 2.52 0.41
3 -2 6 2.58 0.62
3 -2 6 1.86 0.57
3 -2 6 2.23 0.64
3 -2 6 2.06 0.56
-3 2 -6 4.66 1.25
3 -2 6 1.73 0.36
3 -2 7 1.15 0.27
3 -2 7 0.93 0.51
3 -2 7 0.62 0.51
3 -2 7 0.91 0.49
3 -2 7 1.38 0.47
-3 2 -7 0.26 0.92
3 -2 7 0.78 0.25
3 -2 8 47.12 2.21
3 -2 8 49.48 2.59
3 -2 8 53 2.45
3 -2 8 47.1 2.44
-3 2 -8 44.97 3.39
3 -2 9 1.04 0.52
3 -2 9 1.01 0.6
-3 2 -9 0.6 1.11
3 -2 10 30.26 2.12
3 -2 10 29.4 1.84
3 -2 11 1.42 0.55
3 -2 12 0.6 0.53
-3 2 -12 -0.23 0.78
3 -1 -14 -0.15 0.72
3 -1 -13 0.47 0.66
-3 1 13 0.48 1.83
3 -1 -13 0.15 0.64
3 -1 -12 -0.46 0.67
-3 1 12 -0.44 1.5
3 -1 -12 -0.46 0.79
3 -1 -11 33.77 2.22
3 -1 -11 34.68 2.25
-3 1 11 28.91 3.24
3 -1 -10 58.59 3.05
3 -1 -10 59.52 2.71
3 -1 -10 53.99 2.94
-3 1 10 63.15 4.5
-3 1 10 55.93 3.22
3 -1 -9 14.35 1.4
3 -1 -9 15.53 1.15
3 -1 -9 16.55 1.45
-3 1 9 10.53 1.91
-3 1 9 12.88 1.42
3 -1 -8 10.64 1.15
3 -1 -8 8.69 0.83
3 -1 -8 6.27 0.73
-3 1 8 9.35 1.59
3 -1 -8 8.08 0.99
-3 1 8 9.05 1.13
3 -1 -7 0.39 0.51
3 -1 -7 0.14 0.24
3 -1 -7 0.27 0.35
3 -1 -7 0.17 0.37
-3 1 7 0.83 0.93
3 -1 -7 0.13 0.43
-3 1 7 -0.58 0.6
3 -1 -6 18.01 1.26
3 -1 -6 20.51 1.1
3 -1 -6 20.66 1.12
3 -1 -6 20.63 1.76
-3 1 6 19.77 2.16
-3 1 6 20.46 1.6
3 -1 -6 17.3 1.31
3 -1 -5 0.71 0.38
3 -1 -5 0.47 0.4
3 -1 -5 0.13 0.32
-3 1 5 0.55 0.29
3 -1 -5 0.73 0.4
3 -1 -5 0.69 0.43
-3 1 5 0.13 0.5
3 -1 -5 0.9 0.71
-3 1 4 1.12 0.29
3 -1 -4 1.11 0.45
3 -1 -4 0.93 0.61
3 -1 -4 1.77 0.42
-3 1 4 1.83 0.62
3 -1 -3 98.88 3.64
3 -1 -3 104.93 3.5
3 -1 -3 101.37 4.37
-3 1 3 101.62 3.9
3 -1 -2 175.22 6
3 -1 -2 165.41 5.78
3 -1 -2 166.39 6.72
3 -1 -2 174.95 6
3 -1 -1 3.75 0.58
3 -1 -1 6.37 0.55
3 -1 -1 5.08 1.07
3 -1 -1 5.25 0.7
3 -1 0 139.04 4.74
3 -1 0 147.28 5.09
3 -1 0 143.5 5.1
3 -1 0 144.14 4.35
3 -1 0 138.91 5.16
3 -1 1 2.49 0.52
3 -1 1 3.43 0.51
3 -1 1 3.11 0.54
3 -1 2 5.95 0.71
3 -1 2 8.05 0.76
3 -1 2 7.12 0.85
3 -1 2 6.9 0.74
3 -1 3 1.19 0.38
3 -1 3 1.3 0.45
3 -1 3 1.31 0.52
-3 1 -3 1.53 0.91
3 -1 3 2.17 0.43
3 -1 4 137.58 4.71
3 -1 4 134.99 5.01
3 -1 4 146.34 5.15
3 -1 4 144.99 4.75
3 -1 4 138.69 5.15
-3 1 -4 133.51 6.23
3 -1 4 132.1 5.72
3 -1 5 15.35 0.9
3 -1 5 15.6 1.19
3 -1 5 15.52 1.22
3 -1 5 14.17 0.88
-3 1 -5 16.26 1.9
3 -1 6 21.49 1.52
3 -1 6 21.58 1.46
3 -1 6 23.68 1.58
-3 1 -6 22.4 2.27
3 -1 7 -0.37 0.48
3 -1 7 0.57 0.51
3 -1 7 0.12 0.46
-3 1 -7 -0.54 1
-3 1 -8 45.69 2.92
3 -1 8 57.27 2.88
3 -1 8 54.95 2.7
3 -1 8 59.09 2.55
-3 1 -8 60.42 4
3 -1 9 6.61 0.89
-3 1 -9 5.58 1.08
3 -1 9 6.08 0.96
-3 1 -9 5.57 1.6
-3 1 -10 1.9 0.86
3 -1 10 1.63 0.71
3 -1 10 0.82 0.55
-3 1 -10 1 1.21
-3 1 -11 0.23 0.84
3 -1 11 0.23 0.47
-3 1 -12 10.62 1.66
3 -1 12 16.44 1.36
3 0 -14 -0.29 0.69
3 0 -13 6.22 1.05
3 0 -13 7.36 1.1
-3 0 13 9.56 2.4
3 0 -12 -0.3 0.63
-3 0 12 0.44 1.41
3 0 -12 -0.15 0.71
-3 0 11 5.89 1.11
3 0 -11 7.06 1.05
3 0 -11 6.67 0.99
-3 0 11 6.01 1.75
3 0 -11 7.1 1.03
3 0 -10 4.15 0.88
3 0 -10 4.16 0.74
3 0 -10 2.97 0.79
-3 0 10 3.31 1.54
-3 0 10 5.46 1.04
3 0 -9 12.73 1.28
3 0 -9 14.84 1.11
3 0 -9 13.99 1.13
-3 0 9 12.49 1.4
3 0 -9 14.77 1.36
-3 0 9 15.55 2.28
3 0 -8 0.13 0.51
3 0 -8 0.17 0.35
3 0 -8 0.09 0.42
3 0 -8 -0.04 0.23
-3 0 8 0.31 1.04
3 0 -8 0.13 0.5
-3 0 8 0.14 0.55
3 0 -7 72.66 2.97
3 0 -7 67.06 2.59
3 0 -7 70.71 3.67
-3 0 7 58.82 4.12
-3 0 7 71.24 3.31
3 0 -6 89.17 3.61
3 0 -6 91.04 3.32
3 0 -6 92.05 4.36
-3 0 6 95.13 3.96
-3 0 5 9.61 0.97
3 0 -5 9.39 0.99
3 0 -5 8.63 0.87
-3 0 5 9.29 1.06
3 0 -5 9.66 0.99
3 0 -5 9.28 0.79
-3 0 5 7.57 0.93
3 0 -5 9.38 1.32
3 0 -5 8.82 0.86
-3 0 4 16.65 1.29
3 0 -4 19.31 1.3
-3 0 4 17.17 1.32
3 0 -4 18.67 1.17
3 0 -4 16.39 1.18
3 0 -4 21.09 1.9
-3 0 4 17.15 1.37
3 0 -3 105.05 4.01
-3 0 3 108.61 4.14
-3 0 3 107.92 4.17
-3 0 3 100.63 4.06
3 0 -3 96.28 3.82
3 0 -3 102.41 4.92
3 0 -3 105.11 3.9
-3 0 2 107.75 4.08
-3 0 2 104.05 3.99
3 0 -2 93.48 4.8
3 0 -2 94.63 3.72
3 0 -1 262.63 8.87
-3 0 1 287.9 9.17
-3 0 1 280.94 8.97
3 0 -1 271.57 8.89
3 0 -1 271.74 10.15
3 0 -1 271.66 8.82
3 0 0 21.88 1.37
-3 0 0 24.45 1.59
3 0 0 22 1.35
3 0 0 20.14 1.32
3 0 0 22.02 1.37
3 0 0 24.04 0.94
3 0 1 0.16 0.36
3 0 1 0.41 0.4
3 0 1 0.31 0.32
3 0 1 0.42 0.35
-3 0 -1 0.98 0.49
3 0 2 79.23 2.97
-3 0 -2 67.25 3.18
3 0 2 75.43 3.09
-3 0 -2 77.47 3.02
3 0 2 75.23 3.18
3 0 2 73.65 2.93
-3 0 -2 81.37 4.23
3 0 3 55.33 2.3
3 0 3 55.61 2.56
-3 0 -3 59.04 2.4
3 0 3 55.56 2.58
3 0 3 58.24 2.66
3 0 3 56.56 2.31
-3 0 -3 55.25 3.52
3 0 4 2.5 0.41
3 0 4 1.46 0.5
3 0 4 1.54 0.49
-3 0 -4 3.05 0.46
-3 0 -4 2.82 0.96
-3 0 -4 2.48 0.59
3 0 4 1.44 0.66
3 0 4 1.69 0.37
-3 0 -5 3.74 0.85
3 0 5 4.4 0.71
3 0 5 5.55 0.79
-3 0 -5 5.18 1.26
3 0 5 4.75 0.7
-3 0 -6 2.22 0.73
3 0 6 1.61 0.52
3 0 6 2.56 0.63
3 0 6 2.39 0.6
-3 0 -6 0.78 0.85
3 0 7 4.02 0.63
-3 0 -7 5.75 1.04
3 0 7 5.09 0.86
3 0 7 5.37 0.8
-3 0 -7 3.08 1.24
-3 0 -8 -0.19 0.66
3 0 8 0.58 0.59
3 0 8 -0.24 0.53
-3 0 -8 -0.6 1.15
-3 0 -9 27.64 2.32
3 0 9 33.52 2.18
3 0 9 28.57 1.83
-3 0 -9 27.37 2.85
-3 0 -10 0.92 0.81
3 0 10 1.09 0.59
-3 0 -11 0.25 0.86
3 0 11 0.24 0.5
3 0 11 0.25 0.34
3 0 12 -0.11 0.5
3 1 -14 0.14 0.6
-3 -1 14 -1.05 1.75
3 1 -14 -0.27 0.65
3 1 -13 1.71 0.78
-3 -1 13 0.97 1.51
3 1 -13 2.64 0.79
3 1 -12 2.85 0.77
3 1 -12 2.3 0.76
-3 -1 12 1.33 1.53
3 1 -12 2.5 0.69
3 1 -11 3.81 0.9
3 1 -11 6.04 0.9
3 1 -11 5.19 0.94
-3 -1 11 5.77 1.1
3 1 -10 1.11 0.64
3 1 -10 1.13 0.58
3 1 -10 0.28 0.56
-3 -1 10 1.41 0.76
3 1 -9 -0.14 0.65
3 1 -9 -0.18 0.41
3 1 -9 0.42 0.47
3 1 -9 -0.27 0.58
-3 -1 9 0.14 0.51
-3 -1 8 93.66 3.83
3 1 -8 91.73 3.74
3 1 -8 95.44 4.1
-3 -1 8 100.37 4.13
3 1 -8 97.74 3.44
3 1 -8 98.34 4.1
3 1 -8 96.01 4.72
-3 -1 8 93.33 4.07
3 1 -7 14.35 1.14
-3 -1 7 14.38 1.2
-3 -1 7 15.94 1.33
3 1 -7 13.82 1.6
-3 -1 7 13.41 1.24
-3 -1 6 4.48 0.74
3 1 -6 5.36 0.79
-3 -1 6 4.65 0.76
3 1 -6 3.94 1.02
3 1 -6 4.96 0.76
-3 -1 6 4.28 0.76
-3 -1 5 128.57 4.89
3 1 -5 128.11 4.93
-3 -1 5 137.58 4.96
-3 -1 5 131.43 5.01
3 1 -5 130.15 4.94
3 1 -5 142.88 6.08
-3 -1 5 128.23 4.39
-3 -1 5 120.31 4.87
-3 -1 4 8.89 0.93
-3 -1 4 7.8 0.92
-3 -1 4 9.65 0.99
3 1 -4 9.27 1.46
-3 -1 4 7.75 0.55
3 1 -4 8.51 0.77
-3 -1 3 82.24 3.42
-3 -1 3 82.02 3.49
3 1 -3 78.24 3.14
-3 -1 3 90.88 3.55
3 1 -3 83.58 4.49
-3 -1 2 18.43 1.27
-3 -1 2 16.88 1.34
-3 -1 2 17.33 1.27
3 1 -2 22.45 2.14
3 1 -2 16.94 1.1
-3 -1 1 60.86 2.68
3 1 -1 66.25 2.71
-3 -1 1 55.06 2.77
3 1 -1 62.35 2.48
-3 -1 1 61.92 2.73
3 1 -1 58.42 2.62
3 1 -1 62.92 2.17
3 1 0 38.63 1.89
3 1 0 37.51 2
-3 -1 0 41.98 2.16
3 1 0 34.88 1.83
3 1 0 39.32 1.79
3 1 0 39 1.62
-3 -1 -1 1.15 0.42
3 1 1 0.97 0.44
3 1 1 1.43 0.42
-3 -1 -1 2.19 0.59
3 1 1 0.31 0.44
3 1 1 1.33 0.33
3 1 1 1.48 0.41
3 1 1 0.6 0.35
-3 -1 -2 27.6 1.52
3 1 2 27.22 1.43
3 1 2 28.86 1.72
-3 -1 -2 28.7 1.53
3 1 2 27.22 1.41
3 1 2 27.02 1.62
-3 -1 -2 24.07 2.25
-3 -1 -3 95.02 3.54
-3 -1 -3 93.27 4.88
-3 -1 -3 94.44 3.89
3 1 3 94.47 3.91
-3 -1 -3 92.89 3.54
3 1 3 98.58 3.75
3 1 3 100.14 4.56
-3 -1 -4 8.84 0.75
-3 -1 -4 8.08 0.93
3 1 4 7.53 0.96
-3 -1 -4 8.35 0.74
3 1 4 8.75 0.87
-3 -1 -4 4.63 1.21
-3 -1 -5 8.35 0.69
3 1 5 6.85 0.81
-3 -1 -5 10.39 1.02
3 1 5 7.28 0.95
-3 -1 -5 8.6 0.68
-3 -1 -5 9.77 1.62
3 1 6 74.47 3.14
-3 -1 -6 77.51 3.32
-3 -1 -6 79.04 3.87
3 1 6 78.54 3.55
-3 -1 -6 78.76 2.77
3 1 6 76.22 3.36
-3 -1 -6 71.97 4.44
3 1 7 69.41 2.93
-3 -1 -7 70.7 3.77
3 1 7 69.26 3.38
3 1 7 68.3 3.18
-3 -1 -7 71.49 4.48
-3 -1 -8 19.15 1.95
3 1 8 23 1.78
3 1 8 21.71 1.57
-3 -1 -8 18.82 2.36
-3 -1 -9 11.37 1.57
3 1 9 7.27 1.14
3 1 9 11.39 1.18
-3 -1 -9 8.74 1.9
-3 -1 -10 8.67 1.52
3 1 10 8.01 1.02
-3 -1 -11 2.15 1.08
3 1 11 1.72 0.65
3 2 -14 8.97 1.15
3 2 -14 10.35 1.18
3 2 -13 11.38 1.28
3 2 -13 10 1.19
3 2 -13 12.65 1.37
3 2 -12 0.14 0.54
3 2 -12 -0.14 0.67
3 2 -12 0.27 0.55
3 2 -11 19.3 1.57
3 2 -11 18.9 1.54
3 2 -11 18.66 1.54
-3 -2 11 21.72 1.78
-3 -2 10 1.79 0.73
3 2 -10 2.17 0.67
3 2 -10 1.71 0.53
-3 -2 10 2.84 0.77
-3 -2 10 -1.17 1.5
-3 -2 10 2.09 0.64
3 2 -10 2.23 0.68
-3 -2 9 -0.27 0.56
-3 -2 9 0.32 0.52
3 2 -9 -0.26 0.52
-3 -2 9 0.73 1.15
3 2 -9 1.14 0.91
-3 -2 9 -0.14 0.61
3 2 -9 0.13 0.5
-3 -2 8 95.49 4.12
3 2 -8 93.95 4.16
-3 -2 8 104.4 4.08
-3 -2 8 102.75 4.33
3 2 -8 106.69 4.24
3 2 -8 105.11 5.04
-3 -2 8 99.42 5.82
-3 -2 8 100.87 4.23
-3 -2 7 5.23 0.77
-3 -2 7 5.47 0.82
-3 -2 7 6.52 0.91
3 2 -7 5.08 1.29
-3 -2 7 6.31 0.91
-3 -2 7 3.97 1.28
-3 -2 6 66.74 3.08
3 2 -6 67.36 3.1
-3 -2 6 71.52 3.11
-3 -2 6 73.04 3.25
3 2 -6 67.52 3.07
3 2 -6 64.48 3.94
-3 -2 6 68.14 4.47
-3 -2 6 66.96 2.86
-3 -2 5 3.72 0.54
-3 -2 5 4.88 0.75
3 2 -5 2.64 0.58
-3 -2 5 5.2 0.76
-3 -2 5 4.57 0.74
3 2 -5 2.73 1.1
-3 -2 5 1.79 1.09
3 2 -5 5.6 0.75
3 2 -4 0.76 0.94
-3 -2 4 0.75 0.43
3 2 -4 1.62 0.47
-3 -2 4 0.22 0.29
-3 -2 4 1.44 0.5
-3 -2 4 1.45 0.52
-3 -2 4 0.96 0.5
-3 -2 3 47.74 2.34
3 2 -3 45.62 3.31
-3 -2 3 44.75 2.35
-3 -2 3 43.49 2.33
-3 -2 3 48.58 2.26
3 2 -3 48.33 2.03
-3 -2 3 47.97 1.83
-3 -2 2 14.84 1.17
3 2 -2 14.18 1.09
-3 -2 2 15.19 1.22
-3 -2 2 14.34 1.17
3 2 -2 16.59 2.01
3 2 -2 17.15 1.18
3 2 -2 14.61 0.93
-3 -2 2 17.13 1.13
3 2 -2 14.08 0.91
3 2 -1 22.97 1.39
-3 -2 1 22.35 1.53
-3 -2 1 23.18 1.49
3 2 -1 23.73 1.41
3 2 -1 25.08 1.33
3 2 -1 23.17 1.19
3 2 0 58.81 2.48
3 2 0 59.43 2.82
-3 -2 0 53.28 2.66
3 2 0 57.93 2.45
3 2 0 55.42 2.54
3 2 0 58.84 3.4
3 2 0 52.93 2.14
3 2 0 60.56 2.46
-3 -2 -1 42.12 2.01
3 2 1 41.03 2.27
-3 -2 -1 36.37 2.12
-3 -2 -1 40.08 2
3 2 1 40.5 2.71
3 2 1 39.6 1.68
3 2 1 39.27 1.93
3 2 2 123.72 4.67
-3 -2 -2 133.24 4.61
3 2 2 129.81 5.01
-3 -2 -2 122.45 4.56
-3 -2 -2 137.33 6.02
3 2 2 130.27 5.6
3 2 2 123.72 4.22
-3 -2 -3 28.82 1.55
3 2 3 30.84 2.25
3 2 3 28.81 1.89
-3 -2 -3 28.73 1.81
-3 -2 -3 30.19 1.6
-3 -2 -3 29.33 2.54
-3 -2 -4 29.91 1.54
-3 -2 -4 26.15 1.74
3 2 4 30.29 1.96
-3 -2 -4 30.46 1.57
-3 -2 -4 26.31 2.48
-3 -2 -5 36.45 1.7
-3 -2 -5 35.89 2.07
3 2 5 35.86 2.21
-3 -2 -5 33.99 1.68
-3 -2 -5 37.25 3.01
-3 -2 -6 2.02 0.64
-3 -2 -6 2.18 0.47
-3 -2 -6 1.95 0.41
3 2 6 2.27 0.75
-3 -2 -6 1.15 1.13
-3 -2 -7 99.07 3.49
-3 -2 -7 106.81 4.21
3 2 7 114.94 4.69
-3 -2 -7 103.95 3.52
-3 -2 -7 104.75 5.73
3 2 8 1.64 0.53
3 2 8 0.67 0.58
3 2 8 0.65 0.56
-3 -2 -8 0.66 1.2
3 2 9 -0.25 0.42
3 2 9 -0.13 0.5
3 2 10 -0.13 0.58
3 3 -15 2.56 0.96
3 3 -14 27.23 2.1
-3 -3 14 26.66 3.67
3 3 -13 -0.64 0.78
-3 -3 13 1.99 1.61
-3 -3 12 14.6 1.49
3 3 -12 12.01 1.37
-3 -3 12 13.92 2.54
-3 -3 11 3.59 0.9
3 3 -11 3.4 0.81
3 3 -11 4.86 0.84
-3 -3 11 5.56 0.97
-3 -3 11 2.18 1.51
-3 -3 10 67.93 3.29
3 3 -10 65.75 3.21
-3 -3 10 68.52 3.13
-3 -3 10 71.79 3.41
3 3 -10 71.4 3.26
-3 -3 10 68.63 4.99
3 3 -10 81.45 4.36
-3 -3 10 58.55 3.21
-3 -3 9 21.24 1.67
3 3 -9 22.21 1.67
-3 -3 9 23.56 1.6
-3 -3 9 22.3 1.74
3 3 -9 29.2 2.51
3 3 -9 23.63 1.66
-3 -3 9 24.78 2.84
-3 -3 9 24.9 1.86
-3 -3 8 1.92 0.72
-3 -3 8 1.73 0.68
3 3 -8 3.23 1.12
-3 -3 8 1.11 1.2
-3 -3 8 1.35 0.63
-3 -3 7 22.62 1.67
-3 -3 7 26.51 1.69
-3 -3 7 24.22 1.72
3 3 -7 26.03 2.42
-3 -3 7 23.31 2.66
-3 -3 6 9.34 1.03
3 3 -6 11.42 1.08
-3 -3 6 11.64 1.15
3 3 -6 9.29 0.99
3 3 -6 12.36 1.8
-3 -3 6 9.68 1.76
-3 -3 6 9.24 0.98
-3 -3 6 10.77 1.03
-3 -3 6 7.95 1.03
-3 -3 5 42.44 2.23
3 3 -5 39.76 2.12
-3 -3 5 37.25 2.15
-3 -3 5 41 2.25
3 3 -5 39.14 2.09
3 3 -5 37.6 3.1
-3 -3 5 42.41 2.04
-3 -3 5 39.73 2.03
-3 -3 4 0.11 0.44
-3 -3 4 0.59 0.59
-3 -3 4 0.08 0.37
-3 -3 4 -0.12 0.41
3 3 -4 0.28 0.91
-3 -3 4 0.17 0.47
3 3 -3 -0.08 0.35
-3 -3 3 -0.11 0.42
-3 -3 3 0.12 0.44
-3 -3 3 -0.07 0.29
3 3 -3 -0.29 1.02
-3 -3 3 0.34 0.44
-3 -3 3 0.24 0.37
3 3 -2 0.54 0.42
3 3 -2 0.58 1.06
-3 -3 2 0.31 0.4
-3 -3 2 0.12 0.42
-3 -3 2 0.13 0.3
-3 -3 2 0.11 0.39
-3 -3 2 -0.28 0.38
3 3 -1 3.93 0.69
-3 -3 1 3.91 0.75
-3 -3 0 264.76 8.62
3 3 0 243.55 7.61
3 3 0 267.21 8.53
-3 -3 -1 66.83 2.86
3 3 1 71.77 3.33
-3 -3 -1 65.07 2.87
-3 -3 -1 67.87 3.94
3 3 1 63.42 2.19
3 3 1 60.25 2.91
-3 -3 -2 3.32 0.69
-3 -3 -2 3.01 0.6
3 3 2 2.46 0.63
3 3 2 3.36 0.77
-3 -3 -2 1.92 1.06
-3 -3 -2 2.83 0.55
3 3 2 2.36 0.29
3 3 3 3.45 0.35
-3 -3 -3 4.21 0.66
3 3 3 3.73 0.77
3 3 3 4.27 0.83
-3 -3 -3 3.8 0.63
-3 -3 -3 2.99 0.66
-3 -3 -3 3.05 1.15
-3 -3 -4 11.71 0.96
3 3 4 10.83 1.18
3 3 4 8.37 1.14
-3 -3 -4 11.12 0.95
-3 -3 -4 9.91 1.13
-3 -3 -4 9.94 1.72
-3 -3 -5 72.48 2.99
3 3 5 74.93 3.68
3 3 5 74.92 3.67
-3 -3 -5 81.23 3.45
-3 -3 -5 78.33 3.07
-3 -3 -5 71.59 4.54
3 3 6 32.02 2.23
-3 -3 -6 29.14 1.54
-3 -3 -6 30.9 1.93
3 3 6 30.8 2.17
-3 -3 -6 30.3 1.57
-3 -3 -6 27.06 2.76
-3 -3 -7 0.38 0.37
-3 -3 -7 -0.12 0.55
3 3 7 0.35 0.57
-3 -3 -7 0.26 0.37
-3 -3 -7 -0.65 1.35
-3 -3 -8 0.24 0.3
-3 -3 -8 0.37 0.28
-3 -3 -8 0.33 0.6
3 3 9 2.19 0.59
3 3 9 2.23 0.7
3 3 10 0.69 0.66
3 4 -15 0.38 0.79
3 4 -14 2.34 0.87
-3 -4 14 4.93 2.04
3 4 -13 -0.17 0.79
-3 -4 13 0.51 1.66
-3 -4 13 -0.33 0.69
-3 -4 12 0.21 0.8
-3 -4 12 0.75 0.65
-3 -4 12 -1.45 1.61
-3 -4 12 0.16 0.61
-3 -4 11 1.38 0.77
-3 -4 11 1.18 0.67
-3 -4 11 1.1 0.62
-3 -4 11 1.57 0.68
-3 -4 11 1.82 1.61
-3 -4 10 19.21 1.65
-3 -4 10 24.18 2.97
-3 -4 10 23.46 1.64
-3 -4 10 20.58 1.72
3 4 -10 21.45 2.22
-3 -4 10 21.56 1.9
-3 -4 9 0.33 0.69
-3 -4 9 1.13 0.7
-3 -4 9 0.39 0.55
3 4 -9 0.8 1.04
-3 -4 9 2.05 1.41
-3 -4 9 1.31 0.68
-3 -4 9 -0.12 0.54
-3 -4 8 -0.25 0.58
-3 -4 8 -0.35 0.51
-3 -4 8 -0.27 0.61
3 4 -8 0.55 1
-3 -4 8 0.39 1.18
-3 -4 8 0.14 0.56
-3 -4 7 49.44 2.59
-3 -4 7 43.56 2.46
-3 -4 7 49.69 2.63
3 4 -7 44.79 3.46
-3 -4 7 41.77 3.73
-3 -4 7 51.22 2.42
-3 -4 6 1.23 0.56
-3 -4 6 1.65 0.6
-3 -4 6 0.89 0.55
-3 -4 6 2.65 0.67
3 4 -6 4.13 1.33
-3 -4 5 85.98 3.79
-3 -4 5 78.6 3.68
-3 -4 5 90.47 3.86
3 4 -5 101.36 5.38
-3 -4 5 87.99 3.46
-3 -4 5 89.04 3.65
3 4 -4 2.39 0.63
-3 -4 4 3.82 0.71
-3 -4 4 2.69 0.62
3 4 -4 0.92 1.15
-3 -4 4 2.55 0.7
-3 -4 4 4.37 0.78
-3 -4 4 1.98 0.53
-3 -4 3 55.44 2.8
-3 -4 3 60.92 2.92
-3 -4 3 58.62 2.93
3 4 -3 55.28 4.04
3 4 -3 61.22 3.74
3 4 -3 58.92 2.87
-3 -4 3 64.98 2.55
-3 -4 3 64.38 2.73
3 4 -2 -0.37 0.6
-3 -4 2 0.23 0.47
-3 -4 2 0.13 0.4
3 4 -2 -0.64 1.14
3 4 -2 -0.44 0.7
-3 -4 2 -0.12 0.44
-3 -4 2 0.35 0.32
-3 -4 1 79.57 3.62
3 4 -1 84.62 4.3
3 4 -1 82.59 3.7
-3 -4 0 2.67 0.7
3 4 0 3.47 0.76
-3 -4 0 3.11 0.78
3 4 0 2.32 0.92
-3 -4 0 2.02 0.61
-3 -4 -1 0.94 0.55
3 4 1 1.15 0.59
3 4 1 0.33 0.49
3 4 1 1.5 0.7
-3 -4 -1 1.64 0.52
-3 -4 -2 2.84 0.66
3 4 2 3.27 0.84
3 4 2 4.96 0.9
-3 -4 -2 4.08 0.78
-3 -4 -2 2.76 1.11
3 4 2 4.29 0.95
-3 -4 -2 3.09 0.66
-3 -4 -3 1.48 0.56
-3 -4 -3 2.65 0.72
3 4 3 0.63 0.61
3 4 3 0.17 0.52
-3 -4 -3 1.87 1.02
-3 -4 -3 2.38 0.59
-3 -4 -4 74.1 4.65
-3 -4 -4 82.74 3.38
3 4 4 84.76 4.04
-3 -4 -4 79.86 3.65
-3 -4 -4 86.08 3.44
3 4 4 76.05 3.9
-3 -4 -5 10.84 1.05
3 4 5 12.88 1.47
-3 -4 -5 13.36 1.31
3 4 5 12.38 1.44
-3 -4 -5 12.99 1.1
-3 -4 -5 12.62 1.97
-3 -4 -6 6.42 0.82
3 4 6 5 1.08
3 4 6 5.51 1.06
-3 -4 -6 7.71 1.07
-3 -4 -6 6.11 0.77
-3 -4 -6 4.47 1.52
-3 -4 -7 -0.32 0.47
-3 -4 -7 -0.13 0.61
3 4 7 -0.43 0.74
-3 -4 -7 -1.02 1.27
-3 -4 -7 0.08 0.45
-3 -4 -8 10.48 0.88
-3 -4 -8 7.81 1.06
3 4 8 10.32 1.58
-3 -4 -8 8.74 0.83
3 4 9 29.96 2.66
-3 -4 -9 26.11 1.78
-3 -5 14 0.27 1.07
3 5 -14 4.2 1.13
-3 -5 14 0.56 1.49
-3 -5 13 2.73 1.16
-3 -5 13 0.53 1.54
-3 -5 12 -0.23 0.82
-3 -5 12 1.12 0.74
-3 -5 12 0.51 0.71
-3 -5 12 0.5 1.68
-3 -5 11 -0.15 0.61
-3 -5 11 0.65 0.93
-3 -5 11 0.16 0.68
3 5 -11 0.85 1.01
-3 -5 11 0.48 1.49
-3 -5 11 -0.33 0.67
-3 -5 11 -0.13 0.6
-3 -5 10 1.2 0.64
-3 -5 10 1.79 1
-3 -5 10 0.47 0.67
-3 -5 10 1.37 0.61
3 5 -10 1.41 1.1
-3 -5 10 2.27 1.47
-3 -5 10 1.78 0.77
-3 -5 9 3.28 0.75
-3 -5 9 2.82 0.9
-3 -5 9 3.15 0.83
-3 -5 9 2.08 0.73
3 5 -9 3.45 1.27
-3 -5 9 3.01 1.39
-3 -5 9 3.32 0.85
-3 -5 8 13.26 1.36
-3 -5 8 13.17 1.21
-3 -5 8 14.82 1.43
-3 -5 8 15.66 1.44
3 5 -8 11.39 1.88
-3 -5 8 8.53 2.1
-3 -5 8 15 1.57
-3 -5 7 69.44 3.33
-3 -5 7 72.19 3.44
-3 -5 7 62.43 3.17
3 5 -7 69.86 4.42
-3 -5 7 64.67 3.31
-3 -5 7 65.16 2.93
-3 -5 6 24.83 1.82
-3 -5 6 25.14 1.84
-3 -5 6 24.72 1.81
3 5 -6 31.17 2.92
-3 -5 6 25.85 1.56
-3 -5 5 91.18 4.1
-3 -5 5 97.41 4.21
-3 -5 5 96.3 4.25
3 5 -5 111.76 5.91
-3 -5 5 98.06 3.69
-3 -5 4 15.95 1.4
-3 -5 4 20.32 1.6
-3 -5 4 22.46 1.65
3 5 -4 20.11 2.5
3 5 -4 19.02 1.95
3 5 -4 17.81 1.54
-3 -5 4 18.24 1.16
3 5 -3 7.97 1.11
-3 -5 3 9.69 1.06
-3 -5 3 9.76 1.11
-3 -5 3 11.01 1.17
3 5 -3 5.57 1.67
3 5 -3 12.02 1.51
-3 -5 3 10.26 0.8
3 5 -2 11 1.3
-3 -5 2 7.77 1.02
-3 -5 2 9.87 1.04
3 5 -2 10.92 2.1
3 5 -2 13.99 1.6
-3 -5 1 107.72 4.52
3 5 -1 94.77 4.85
3 5 -1 113.9 4.81
-3 -5 0 0.6 0.5
3 5 0 0.34 0.68
3 5 0 0.36 0.6
3 5 0 0.37 0.6
-3 -5 0 0.12 0.46
-3 -5 -1 -0.23 0.58
3 5 1 -0.35 0.64
3 5 1 0.18 0.63
-3 -5 -1 -0.14 0.55
3 5 1 -0.18 0.61
-3 -5 -1 0.24 0.44
-3 -5 -2 9.41 1.03
3 5 2 10.21 1.33
3 5 2 9.41 1.27
-3 -5 -2 9.57 1.06
-3 -5 -2 11.26 1.25
-3 -5 -2 10.17 1.67
-3 -5 -3 36.8 2.01
3 5 3 29.15 2.24
-3 -5 -3 26.31 2.01
-3 -5 -3 31.74 1.92
-3 -5 -3 34.8 2.96
3 5 3 31.47 2.37
-3 -5 -4 11.03 1.09
-3 -5 -4 9.07 1.18
3 5 4 10.45 1.46
3 5 4 11.2 1.42
-3 -5 -4 12.04 1.13
-3 -5 -4 9.81 1.78
-3 -5 -5 8.28 1.18
-3 -5 -5 10.92 1.1
3 5 5 13.99 1.67
3 5 5 12.36 1.48
-3 -5 -5 11.05 1.09
-3 -5 -5 14.19 2.16
-3 -5 -6 5.43 0.8
3 5 6 6.22 1.33
-3 -5 -6 5.32 1.01
-3 -5 -6 7.72 1.82
-3 -5 -6 7.05 0.91
-3 -5 -7 0.59 0.55
3 5 7 0.5 1
-3 -5 -7 0.58 0.62
-3 -5 -7 0.2 0.51
-3 -5 -8 1.9 0.77
3 5 8 1.07 1.16
-3 -6 13 1.09 1.05
-3 -6 13 1.11 1.67
-3 -6 13 0.74 0.74
-3 -6 12 0.99 1.01
-3 -6 12 -0.53 0.81
-3 -6 12 0.53 1.58
-3 -6 12 0.73 0.75
-3 -6 11 0.85 0.71
-3 -6 11 1.13 0.98
-3 -6 11 0.69 0.79
3 6 -11 -0.3 1.06
-3 -6 11 0.46 0.64
-3 -6 11 1.5 1.56
-3 -6 11 0.18 0.62
-3 -6 10 5.8 0.92
-3 -6 10 2.05 0.93
-3 -6 10 3.69 0.91
3 6 -10 3.94 1.36
-3 -6 10 2.92 0.85
-3 -6 10 3.3 1.67
-3 -6 10 3 0.89
-3 -6 9 23.72 1.9
-3 -6 9 28.2 2.08
-3 -6 9 21.49 1.85
3 6 -9 26.81 2.75
-3 -6 9 21.3 3.08
-3 -6 9 23.38 2.04
-3 -6 9 21.9 1.59
-3 -6 8 32.97 2.3
-3 -6 8 32.52 2.28
3 6 -8 33.44 3.22
-3 -6 8 31.56 2.17
-3 -6 8 30.31 2.31
-3 -6 8 31.84 1.87
-3 -6 7 528.12 16.41
-3 -6 7 496.03 16.39
3 6 -7 491.63 18.15
-3 -6 7 515.26 16.29
-3 -6 7 488.49 16.42
-3 -6 7 510.93 15.68
-3 -6 6 0.17 0.46
-3 -6 6 -0.15 0.67
-3 -6 6 -0.16 0.72
-3 -6 6 0.45 0.66
3 6 -6 -1.02 1.53
-3 -6 6 0.64 0.68
-3 -6 5 3.78 0.59
3 6 -5 5.06 1.07
-3 -6 5 5.52 0.96
-3 -6 5 3.59 0.86
-3 -6 5 4.91 0.9
3 6 -5 4.75 1.26
-3 -6 5 4.6 0.87
-3 -6 4 0.28 0.58
-3 -6 4 -0.28 0.55
3 6 -4 -0.22 0.88
-3 -6 4 0.74 0.62
-3 -6 4 0.15 0.53
-3 -6 4 0.13 0.36
3 6 -3 1.29 0.87
-3 -6 3 2.65 0.72
-3 -6 3 1.5 0.64
-3 -6 3 1.49 0.66
3 6 -3 3.09 1.03
-3 -6 3 1.72 0.7
-3 -6 3 1.32 0.39
3 6 -2 1.73 0.96
-3 -6 2 0.54 0.57
-3 -6 2 0.9 0.57
3 6 -2 1.16 0.8
3 6 -1 1.81 0.88
-3 -6 1 4.51 0.84
3 6 -1 2.55 0.88
-3 -6 1 3.17 0.75
-3 -6 0 7.92 1.04
3 6 0 5.11 1.13
3 6 0 7.24 1.21
3 6 0 10.45 1.28
-3 -6 0 8.79 1.09
-3 -6 -1 25.67 1.74
3 6 1 24.28 2.1
-3 -6 -1 23.25 1.72
-3 -6 -1 23.82 1.87
3 6 1 24.94 2.18
-3 -6 -2 11.66 1.36
-3 -6 -2 11.44 1.22
3 6 2 9.52 1.44
3 6 2 11.97 1.5
-3 -6 -2 5.92 1.58
-3 -6 -2 9.79 1.14
-3 -6 -3 93.4 3.89
3 6 3 90.24 4.47
-3 -6 -3 98.69 4.31
-3 -6 -3 84.5 3.85
-3 -6 -3 83.78 5
3 6 3 85.29 4.58
-3 -6 -4 0.73 0.61
3 6 4 0.24 0.85
-3 -6 -4 1.16 0.69
-3 -6 -4 -0.31 1.31
-3 -6 -4 2.02 0.71
-3 -6 -5 1.58 0.64
-3 -6 -5 0.17 0.65
3 6 5 -0.25 0.97
-3 -6 -5 -0.33 1.2
-3 -6 -5 0.86 0.67
-3 -6 -6 1.06 0.64
3 6 6 0.54 0.98
-3 -6 -6 1.21 0.59
-3 -6 -6 -0.16 0.65
-3 -6 -7 4.62 1.02
3 6 7 6.84 1.67
-3 -6 -7 4.56 0.85
-3 -7 13 -0.58 1.66
-3 -7 13 1.63 0.9
-3 -7 12 0.25 0.88
-3 -7 12 0.38 0.78
-3 -7 12 0.54 1.64
-3 -7 12 0.8 0.77
-3 -7 11 4.34 0.85
-3 -7 11 3.77 1.17
-3 -7 11 6.94 1.29
-3 -7 11 2.06 1.97
-3 -7 11 3.43 0.96
-3 -7 11 6.51 1.23
-3 -7 10 1.65 0.64
-3 -7 10 -0.22 0.89
-3 -7 10 0.18 0.79
-3 -7 10 1.01 0.77
-3 -7 10 -0.48 1.51
-3 -7 10 0.77 0.84
-3 -7 9 52.72 3.06
-3 -7 9 50.57 3.03
-3 -7 9 47.22 2.88
-3 -7 9 51.11 3.22
-3 -7 9 48.34 2.51
-3 -7 8 41.24 2.65
-3 -7 8 39.99 2.66
-3 -7 8 43.3 2.58
-3 -7 8 41.2 2.8
-3 -7 8 36.33 2.04
-3 -7 7 81.06 3.79
-3 -7 7 72.84 3.73
-3 -7 7 70.42 3.62
-3 -7 7 65.63 2.95
-3 -7 7 74.37 3.83
-3 -7 6 1.31 0.52
-3 -7 6 1.3 0.75
-3 -7 6 1.62 0.77
-3 -7 6 2.13 0.85
3 7 -6 1.92 1
-3 -7 6 1.36 0.68
-3 -7 5 4.66 0.62
3 7 -5 2.45 0.97
-3 -7 5 3.8 0.87
-3 -7 5 2.69 0.83
-3 -7 5 3.09 0.87
3 7 -5 2.47 0.98
-3 -7 5 3.93 0.92
3 7 -4 1.31 0.98
-3 -7 4 1.86 0.71
-3 -7 4 1.12 0.74
-3 -7 4 0.65 0.61
3 7 -4 -2.74 1.64
3 7 -4 -0.2 0.7
-3 -7 4 0.64 0.61
-3 -7 4 0.47 0.34
3 7 -3 -0.22 0.86
-3 -7 3 -0.31 0.58
-3 -7 3 0.81 0.65
3 7 -3 -0.41 1.48
3 7 -3 0.19 0.65
-3 -7 3 0.31 0.29
-3 -7 3 0.47 0.64
-3 -7 2 -0.16 0.68
3 7 -2 1.36 0.91
3 7 -2 -0.42 1.55
3 7 -2 0.88 0.66
-3 -7 1 14.43 1.4
3 7 -1 12.52 1.68
-3 -7 1 14.27 1.4
3 7 -1 12.69 1.42
3 7 0 1.68 0.92
-3 -7 0 0.85 0.72
3 7 0 1.12 0.89
-3 -7 0 0.83 0.62
-3 -7 0 0.9 0.64
-3 -7 -1 56.4 2.86
3 7 1 52.28 3.35
-3 -7 -1 47.93 2.77
-3 -7 -1 54.56 3.03
3 7 1 52.89 3.46
-3 -7 -2 21.6 1.68
-3 -7 -2 21.01 1.69
-3 -7 -2 24.95 2
3 7 2 20.51 2.25
-3 -7 -3 0.96 0.75
3 7 3 1.05 0.98
-3 -7 -3 1.08 0.85
-3 -7 -3 0.29 0.66
-3 -7 -4 9.78 1.13
3 7 4 5.56 1.48
-3 -7 -4 7.29 1.21
-3 -7 -4 7.03 1.05
-3 -7 -5 1.75 0.75
3 7 5 2.65 1.21
-3 -7 -5 2.01 0.85
-3 -7 -5 1.93 0.68
-3 -7 -6 1.61 0.78
-3 -7 -6 2.95 0.75
-3 -8 13 3.54 2.26
-3 -8 13 4.88 1.22
-3 -8 12 -0.27 1
-3 -8 12 -1.67 1.91
-3 -8 12 0.22 0.91
-3 -8 12 0.19 0.73
-3 -8 11 0.28 0.64
-3 -8 11 0.26 0.93
-3 -8 11 0.93 0.74
-3 -8 11 0.64 0.88
-3 -8 10 29.84 2.38
-3 -8 10 23.58 2.12
-3 -8 10 24.93 2.4
-3 -8 10 29.74 1.9
-3 -8 9 40.96 2.83
-3 -8 9 44.14 2.9
3 8 -9 44.14 3.83
-3 -8 9 43.77 2.75
-3 -8 9 42.03 3
-3 -8 9 39.6 2.23
-3 -8 8 3.19 0.7
-3 -8 8 2.23 0.95
-3 -8 8 2.16 0.97
-3 -8 8 3.05 0.98
3 8 -8 3.67 1.71
-3 -8 8 4.55 1.05
-3 -8 7 3.07 0.65
-3 -8 7 5.22 1.05
-3 -8 7 3.49 1.03
-3 -8 7 3.56 0.97
3 8 -7 3.79 1.58
3 8 -7 4.06 1.26
-3 -8 7 3 0.88
-3 -8 6 0.95 0.5
3 8 -6 1.37 0.96
-3 -8 6 3.19 0.91
-3 -8 6 0.2 0.66
3 8 -6 3.5 1.78
3 8 -6 0.66 0.83
-3 -8 6 2.12 0.81
-3 -8 6 1.83 0.76
-3 -8 5 0.72 0.42
3 8 -5 -0.48 1.03
-3 -8 5 0.17 0.65
-3 -8 5 0.35 0.57
-3 -8 5 1.12 0.78
3 8 -5 0.59 0.81
-3 -8 5 0.89 0.67
3 8 -4 4.63 1.39
-3 -8 4 6.34 1.08
-3 -8 4 4.92 1.02
-3 -8 4 3.25 0.92
3 8 -4 2.94 1.79
3 8 -4 3.61 0.96
-3 -8 4 3.5 0.93
-3 -8 4 3.58 0.49
3 8 -3 0.26 1.07
-3 -8 3 -0.18 0.63
3 8 -3 -0.87 1.54
3 8 -3 0.33 0.73
-3 -8 3 0.7 0.64
3 8 -2 -0.52 1
-3 -8 2 0.48 0.7
3 8 -2 -1.34 1.74
3 8 -2 -0.47 0.72
-3 -8 2 -0.51 0.65
3 8 -1 1.35 1.08
-3 -8 1 1.11 0.77
-3 -8 1 0.72 0.73
-3 -8 1 0.5 0.62
-3 -8 0 0.33 0.63
3 8 0 0.83 1.11
-3 -8 0 1.73 0.79
-3 -8 0 0.18 0.66
-3 -8 -1 36.77 2.35
-3 -8 -1 35.85 2.38
-3 -8 -1 37.29 2.56
3 8 1 32.82 2.95
-3 -8 -2 53.41 2.98
-3 -8 -2 59.72 3.13
-3 -8 -2 55.06 3.25
3 8 2 56.99 3.98
-3 -8 -3 3.31 0.98
-3 -8 -3 3.93 0.93
3 8 3 3.03 1.52
-3 -8 -3 3.16 0.9
-3 -8 -4 2.85 0.9
3 8 4 5.73 1.7
-3 -8 -4 2.98 0.93
-3 -8 -4 3.73 0.93
-3 -8 -5 0.4 0.83
-3 -8 -5 0.77 0.76
-3 -9 13 -0.71 0.97
-3 -9 12 -0.2 0.83
-3 -9 12 1.17 1.06
-3 -9 11 1.64 0.76
-3 -9 11 0.2 0.78
-3 -9 11 1.6 0.98
-3 -9 10 -0.37 0.56
-3 -9 10 1.28 1.13
-3 -9 10 0.45 0.86
-3 -9 10 0.4 0.74
-3 -9 9 0.44 0.53
-3 -9 9 0.24 0.89
-3 -9 9 -0.2 0.77
-3 -9 9 0.87 0.96
-3 -9 8 0.29 0.44
-3 -9 8 0.23 0.83
3 9 -8 0.39 1.51
3 9 -8 0.24 0.83
-3 -9 8 -0.39 0.76
-3 -9 8 -0.41 0.77
-3 -9 7 0.85 0.5
-3 -9 7 1.35 0.99
3 9 -7 -0.4 1.49
-3 -9 7 1.16 0.79
3 9 -7 0.85 0.92
-3 -9 7 1.21 0.79
-3 -9 6 0.51 0.44
3 9 -6 1.07 0.89
-3 -9 6 0.64 0.87
3 9 -6 1.24 1.61
3 9 -6 -0.56 0.81
-3 -9 6 -0.2 0.66
-3 -9 6 0.19 0.7
3 9 -5 3.95 1.44
-3 -9 5 6.33 1.27
-3 -9 5 2.69 0.98
3 9 -5 7.7 2.15
3 9 -5 4.85 1.03
-3 -9 5 4.85 1.03
-3 -9 5 4.07 0.58
-3 -9 4 18.01 1.86
3 9 -4 19.52 2.38
-3 -9 4 16.4 1.71
3 9 -4 19.53 3.05
3 9 -4 18.07 1.65
-3 -9 4 16.67 0.82
-3 -9 4 21.41 1.98
3 9 -3 0.3 1.28
-3 -9 3 2.19 0.91
-3 -9 3 2.3 0.9
3 9 -3 0.46 1.59
-3 -9 2 0.18 0.65
3 9 -2 0.6 1.14
3 9 -2 1.89 1.97
-3 -9 1 3.66 1.02
3 9 -1 4.87 1.59
-3 -9 1 5.42 1.16
-3 -9 0 67.24 3.55
-3 -9 0 63.21 3.55
3 9 0 62.53 4.34
-3 -9 -1 0.18 0.77
3 9 1 -0.65 1.37
-3 -9 -1 1.6 0.99
-3 -9 -2 -0.52 0.79
-3 -9 -2 0.62 0.84
-3 -9 -3 1.26 0.99
-3 -9 -3 0.35 0.74
-3 -9 -4 0.43 0.95
-3 -9 -4 0.34 0.73
-3 -10 12 -0.22 0.83
-3 -10 11 -0.27 0.68
-3 -10 11 -0.22 0.88
-3 -10 10 2.42 0.76
-3 -10 10 2.56 1.01
3 10 -10 1.99 1.14
-3 -10 10 0.48 0.91
-3 -10 9 -0.11 0.54
3 10 -9 1.13 0.88
-3 -10 9 0.23 0.85
-3 -10 9 -0.21 0.92
-3 -10 8 -0.09 0.44
3 10 -8 0.98 0.84
-3 -10 8 -0.21 0.92
-3 -10 8 -0.22 0.8
-3 -10 7 2.98 0.65
-3 -10 7 3.16 1.13
3 10 -7 1.86 0.91
-3 -10 7 3.04 1.06
-3 -10 6 4.34 0.62
3 10 -6 4.87 1.63
-3 -10 6 2.52 0.98
3 10 -6 4.08 0.95
-3 -10 6 3.42 1.13
3 10 -5 7.7 1.88
-3 -10 5 6.69 1.27
3 10 -5 5.54 0.96
-3 -10 5 8.84 1.44
3 10 -4 1 1.31
-3 -10 4 1.25 0.82
-3 -10 3 12.24 1.62
3 10 -3 10.64 2.07
-3 -10 2 4.86 1.17
-3 -10 2 4.37 1.15
3 10 -2 4.01 1.53
-3 -10 1 12.4 1.59
3 10 -1 7.46 1.98
-3 -10 1 10.49 1.57
-3 -10 0 8.89 1.44
3 10 0 7.67 1.93
-3 -10 0 8.76 1.47
-3 -10 -1 0.19 0.83
-3 -10 -2 0.38 0.77
3 11 -6 6.84 1.86
3 11 -5 3.95 1.87
3 11 -4 7.14 1.95
-4 11 1 0.69 1.29
-4 11 0 0.33 1.33
-4 11 -1 0.32 1.28
-4 10 4 1.63 1.28
-4 10 3 3.56 1.56
-4 10 3 2.1 0.92
-4 10 2 7.13 1.68
-4 10 2 6.93 1.35
-4 10 1 7.2 1.78
-4 10 1 7.13 1.33
-4 10 0 -0.59 1.2
-4 10 0 -0.42 0.93
4 -10 0 0.45 0.85
-4 10 -1 11.27 1.89
-4 10 -1 9.07 1.51
4 -10 1 10.5 1.6
-4 10 -2 9.27 1.47
-4 10 -2 11.3 1.66
4 -10 2 7.37 1.45
-4 10 -3 3.67 1.09
-4 10 -3 4.52 1.13
4 -10 3 3.92 1.14
-4 10 -4 0.45 0.8
-4 10 -5 -0.22 0.75
-4 10 -5 0.66 0.75
-4 10 -6 0.89 0.81
-4 10 -7 0.1 0.51
-4 10 -7 -0.22 0.8
-4 10 -8 0.96 0.57
-4 10 -9 0.83 0.63
-4 10 -10 0.62 0.72
-4 10 -11 0.68 0.7
-4 10 -12 0.19 0.72
-4 9 5 3.88 1.54
-4 9 5 3.05 1.17
-4 9 4 31.73 2.59
-4 9 4 30.76 2.27
-4 9 4 31.58 3.01
-4 9 3 0.86 1.13
-4 9 3 0.67 0.79
-4 9 3 0.71 0.89
4 -9 -3 0.2 0.89
-4 9 2 -0.85 1.32
-4 9 2 -0.22 0.86
-4 9 2 0.18 0.7
4 -9 -2 0.83 0.93
-4 9 1 28.24 2.41
-4 9 1 30.68 2.34
-4 9 1 23.5 2.56
4 -9 -1 29.76 2.46
-4 9 0 2.05 1.28
-4 9 0 2.17 1.01
-4 9 0 0.38 0.73
4 -9 0 0.22 0.79
-4 9 -1 1.21 1.01
-4 9 -1 3.12 1.02
4 -9 1 3.94 1.19
-4 9 -2 4.05 1.12
-4 9 -2 5.13 1.18
4 -9 2 3.69 1.12
-4 9 -3 14.35 1.63
-4 9 -4 2.02 0.37
-4 9 -4 2.3 0.91
-4 9 -4 3.82 1.05
-4 9 -5 15.15 1.03
-4 9 -5 15.1 1.68
-4 9 -5 14.62 1.66
-4 9 -6 4.06 0.71
-4 9 -6 3.7 0.98
-4 9 -6 7.19 1.29
-4 9 -7 1.96 0.69
-4 9 -7 2.87 0.94
-4 9 -7 0.84 0.74
-4 9 -8 0.13 0.66
-4 9 -8 1.02 0.75
-4 9 -8 -0.43 0.88
-4 9 -9 1 0.65
-4 9 -9 0.63 0.84
-4 9 -9 1.53 0.91
-4 9 -10 -0.32 0.64
-4 9 -10 0.62 0.77
-4 9 -11 19.06 1.81
-4 9 -12 -0.58 0.88
-4 8 7 1.15 1.3
-4 8 6 25.57 2.27
-4 8 6 21.89 2.55
4 -8 -5 2.89 1.07
-4 8 5 4.01 1.34
-4 8 5 2.24 1.01
-4 8 5 1.22 0.78
4 -8 -4 9.82 1.42
-4 8 4 12.93 1.85
-4 8 4 11.27 1.55
-4 8 4 11.99 1.39
-4 8 3 7.04 1.63
-4 8 3 6.83 1.28
-4 8 3 3.31 0.89
4 -8 -3 4.29 1.06
-4 8 2 2.2 1.08
-4 8 2 4.32 1.06
-4 8 2 4.24 0.98
4 -8 -2 3.22 1.07
-4 8 1 0.24 1.02
-4 8 1 2.64 0.93
-4 8 1 1.21 0.77
4 -8 -1 1.45 0.85
-4 8 0 14.49 1.78
-4 8 0 12.03 1.41
-4 8 -1 3.98 0.98
-4 8 -1 5.38 1.1
-4 8 -2 1.38 0.77
-4 8 -2 1.27 0.84
-4 8 -3 19.65 1.82
-4 8 -4 5.85 0.61
-4 8 -4 7.34 1.21
-4 8 -4 6.89 1.17
-4 8 -5 2.05 0.53
-4 8 -5 3.45 0.98
-4 8 -5 1.89 0.81
-4 8 -6 -0.1 0.51
-4 8 -6 0.96 0.78
-4 8 -6 -0.39 0.72
-4 8 -7 16.73 1.72
-4 8 -7 12.25 1.21
-4 8 -7 14.67 1.65
-4 8 -8 0.26 0.56
-4 8 -8 0.58 0.72
-4 8 -8 -0.41 0.7
-4 8 -9 -0.45 0.71
-4 8 -9 -0.38 0.82
-4 8 -9 -0.42 0.78
-4 8 -10 -0.96 1.43
-4 8 -10 1.49 0.75
-4 8 -10 1.9 0.93
-4 8 -10 0.86 0.83
-4 8 -11 5.3 1.08
-4 8 -11 7.53 1.37
-4 8 -11 4.77 1.54
-4 8 -12 1.4 0.85
-4 7 8 -0.26 1.08
-4 7 7 2.29 1.26
-4 7 6 22.11 2.02
-4 7 6 23.38 2.31
4 -7 -6 21.83 1.9
4 -7 -5 0.18 0.69
-4 7 5 0.71 0.92
-4 7 5 2.82 0.87
-4 7 5 0.57 0.66
4 -7 -5 1.1 0.7
4 -7 -4 0.56 0.71
-4 7 4 1.79 1.17
-4 7 4 0.76 0.67
-4 7 4 3.55 0.87
4 -7 -4 1.46 0.78
-4 7 3 4.48 1.24
-4 7 3 5.51 1.15
-4 7 3 6.74 1.09
4 -7 -3 4.51 1.04
-4 7 2 -0.2 0.94
-4 7 2 0.19 0.64
-4 7 2 0.63 0.73
-4 7 1 36.62 2.39
-4 7 1 38.61 2.69
-4 7 0 10.68 1.49
-4 7 0 10.11 1.25
4 -7 0 12.28 1.77
4 -7 0 10.87 1.27
4 -7 0 9.27 1.34
-4 7 -1 -0.37 0.66
-4 7 -1 0.33 0.62
4 -7 1 0.16 0.58
4 -7 1 0.21 0.93
4 -7 1 -0.39 0.62
-4 7 -2 8.45 1.2
4 -7 2 9.96 1.26
4 -7 2 7.6 1.31
-4 7 -3 25.14 2.05
-4 7 -3 32.54 2.22
4 -7 3 26.06 1.97
4 -7 3 25.39 2.15
-4 7 -4 17.38 1.68
-4 7 -4 15.65 1.06
-4 7 -4 16.09 1.6
4 -7 4 18.03 1.67
4 -7 4 18.12 1.75
4 -7 4 16.45 1.69
4 -7 5 6.58 1.22
-4 7 -5 5.52 0.77
-4 7 -5 6.01 1.15
-4 7 -5 6.99 1.14
4 -7 5 4.48 0.96
4 -7 5 4.69 1.04
4 -7 6 1.65 0.97
-4 7 -6 1.39 0.56
-4 7 -6 0.9 0.75
-4 7 -6 0.92 0.75
4 -7 6 2.03 0.76
4 -7 7 0.89 0.97
-4 7 -7 0.49 0.54
-4 7 -7 0.18 0.7
-4 7 -7 0.95 0.71
4 -7 7 0.69 0.72
-4 7 -8 6.69 1.03
-4 7 -8 9.83 1.31
-4 7 -8 8.99 1.3
4 -7 8 9.1 1.35
-4 7 -9 4.05 0.95
-4 7 -9 2.84 0.83
-4 7 -9 5.44 1.19
-4 7 -9 4.51 1.5
4 -7 9 3.29 0.91
-4 7 -10 1.23 0.78
-4 7 -10 0.17 0.73
-4 7 -10 0.34 1.21
-4 7 -11 3.42 1.01
-4 7 -12 1.46 0.91
-4 6 9 5.85 1.42
4 -6 -8 -0.21 0.8
-4 6 8 0.46 1
4 -6 -8 0.85 0.76
-4 6 8 0.31 1.14
4 -6 -7 -0.34 0.7
4 -6 -7 -0.2 0.82
4 -6 -7 0.34 0.69
-4 6 7 0.22 0.92
-4 6 7 0.84 1.15
4 -6 -6 5.17 1.07
4 -6 -6 6.13 1.12
-4 6 6 5.73 1.32
-4 6 6 5.96 1.53
4 -6 -5 1.23 0.78
-4 6 5 -0.2 0.85
-4 6 5 0.52 0.75
4 -6 -5 0.17 0.73
-4 6 4 0.19 0.79
-4 6 4 0.35 0.65
-4 6 4 0.68 0.68
4 -6 -4 -0.17 0.67
4 -6 -4 1.26 0.84
-4 6 3 -0.18 0.84
-4 6 3 0.7 0.6
4 -6 -3 0.17 0.63
-4 6 3 -0.14 0.59
4 -6 -3 -0.17 0.65
-4 6 2 1.01 0.78
-4 6 2 2.09 0.81
4 -6 -2 2.42 0.71
-4 6 2 1.6 0.73
4 -6 -2 1.12 0.72
4 -6 -1 20.5 1.59
-4 6 1 14.45 1.45
4 -6 -1 13.6 1.83
4 -6 -1 17.15 1.46
-4 6 1 16.37 1.55
4 -6 -1 17.69 1.69
4 -6 0 3.6 0.81
-4 6 0 2.92 0.89
-4 6 0 2.74 0.79
4 -6 0 3.92 1.2
4 -6 0 2.41 0.81
4 -6 0 4.47 0.84
-4 6 -1 72.59 3.65
4 -6 1 74.16 3.44
4 -6 1 65.98 3.35
4 -6 1 70.52 4.08
4 -6 1 74.03 3.72
4 -6 1 70.15 3.17
4 -6 2 3.84 0.82
-4 6 -2 1.36 0.74
4 -6 2 4.21 0.89
4 -6 2 3.46 1.1
4 -6 2 3.89 0.84
-4 6 -3 243.75 8.63
-4 6 -3 229.29 7.38
4 -6 3 242.61 8.36
-4 6 -3 238.94 8.54
4 -6 3 237.67 8.39
4 -6 3 236.11 8.96
4 -6 3 220.23 8.24
4 -6 4 1.29 0.78
-4 6 -4 1.53 0.47
-4 6 -4 2.52 0.76
-4 6 -4 2 0.78
4 -6 4 1.21 0.67
4 -6 4 0.39 0.82
-4 6 -5 28.18 2.08
-4 6 -5 27.68 1.64
-4 6 -5 23.38 1.97
4 -6 5 27.24 2
4 -6 5 28.34 2.24
4 -6 5 28.59 2.17
4 -6 6 0.85 0.59
4 -6 6 0.78 0.71
-4 6 -6 2.41 0.66
-4 6 -6 0.84 0.7
4 -6 6 2.63 0.68
-4 6 -6 2.3 0.78
4 -6 6 2.07 0.73
4 -6 6 1.51 0.78
4 -6 7 2.85 1.12
-4 6 -7 4.61 0.81
-4 6 -7 2.68 0.81
-4 6 -7 4.4 0.96
4 -6 7 4.05 0.96
4 -6 8 -0.23 0.89
-4 6 -8 0.74 0.68
-4 6 -8 0.33 0.62
4 -6 8 -0.17 0.61
-4 6 -8 -0.96 1.26
4 -6 8 1.19 0.74
4 -6 9 0.25 1.02
-4 6 -9 2.47 0.84
-4 6 -9 2.38 1.5
4 -6 9 2.56 0.83
-4 6 -10 -0.18 0.74
-4 6 -10 1.43 1.4
-4 6 -11 -0.4 0.72
-4 6 -12 -0.22 0.83
-4 5 10 0.23 1.02
-4 5 10 1.58 1.68
4 -5 -9 0.83 0.85
-4 5 9 0.63 0.86
-4 5 9 2.15 1.5
4 -5 -8 7.42 1.29
-4 5 8 7.57 1.28
4 -5 -8 6.31 1.08
-4 5 8 3.93 1.53
4 -5 -7 -0.16 0.6
4 -5 -7 0.19 0.64
-4 5 7 -0.37 0.75
4 -5 -7 -0.48 0.64
-4 5 7 0.9 1.22
4 -5 -6 0.81 0.65
-4 5 6 0.89 0.8
-4 5 6 0.81 1.09
4 -5 -5 0.54 0.59
4 -5 -5 0.32 0.63
-4 5 5 0.17 0.76
-4 5 4 6.42 1.09
4 -5 -4 4.57 0.82
-4 5 4 4.63 0.92
4 -5 -4 5.67 1.03
4 -5 -4 5.73 0.99
4 -5 -4 6.05 0.99
4 -5 -4 6.08 1.08
-4 5 3 149.53 5.9
4 -5 -3 136.13 5.75
4 -5 -3 148.01 5.65
4 -5 -3 140.77 5.81
-4 5 3 145.11 5.59
4 -5 -3 149.65 5.49
-4 5 3 142.5 5.65
4 -5 -3 151.34 6
4 -5 -2 36.19 2.4
4 -5 -2 40.16 2.36
4 -5 -2 42.25 2.48
-4 5 2 36.89 2.29
4 -5 -2 45.49 2.34
-4 5 2 40.6 2.37
4 -5 -2 42.33 2.63
-4 5 1 3.48 0.75
-4 5 1 2.86 0.85
4 -5 -1 2.2 0.66
-4 5 1 2.8 0.79
4 -5 -1 2.5 0.65
4 -5 -1 2.38 1.21
4 -5 -1 2.44 0.67
4 -5 -1 1.23 0.64
4 -5 0 46.02 2.72
-4 5 0 46.9 2.8
4 -5 0 48.54 2.65
4 -5 0 52.52 2.74
-4 5 0 48.22 2.75
4 -5 0 52.35 2.69
4 -5 0 54.68 3.6
4 -5 0 63.73 3.2
4 -5 0 53.62 2.36
4 -5 1 94.19 4.34
-4 5 -1 105.67 4.54
4 -5 1 108.29 4.36
4 -5 1 99.02 4.25
4 -5 1 101.81 4.26
4 -5 1 102.69 5.17
4 -5 1 92.61 4.47
4 -5 1 103.7 3.96
4 -5 2 53.29 2.86
-4 5 -2 48.69 2.79
4 -5 2 56.14 2.76
4 -5 2 51.32 2.64
-4 5 -2 47.26 2.73
4 -5 2 47.71 2.61
4 -5 2 43.16 2.5
4 -5 2 50.4 3.29
4 -5 2 47.56 2.46
4 -5 3 47.84 2.66
-4 5 -3 43.88 2.6
-4 5 -3 44.41 2.01
4 -5 3 45.21 2.46
4 -5 3 42.92 2.35
-4 5 -3 41.74 2.55
4 -5 3 39.62 2.41
4 -5 3 47.66 2.61
4 -5 3 42.32 2.92
4 -5 3 41.05 2.38
4 -5 4 4.78 0.93
-4 5 -4 6.33 0.8
-4 5 -4 8.18 1.12
4 -5 4 6.04 0.87
-4 5 -4 7.11 1.06
4 -5 4 10.77 1.16
4 -5 4 9.17 1.35
4 -5 4 8.58 1.15
-4 5 -5 17.98 1.64
4 -5 5 19.14 1.7
-4 5 -5 18.64 1.39
4 -5 5 15.67 1.41
4 -5 5 18.43 1.4
-4 5 -5 18.53 1.7
4 -5 5 21.78 1.67
4 -5 5 20.36 1.93
4 -5 5 19.8 1.76
4 -5 6 2.76 1
-4 5 -6 3.11 0.72
-4 5 -6 2.05 0.73
4 -5 6 3.34 0.71
4 -5 6 3.19 0.8
4 -5 6 2.94 0.76
4 -5 6 3 0.86
4 -5 7 0.32 0.52
4 -5 7 1.97 0.93
4 -5 7 0.6 0.51
-4 5 -7 0.14 0.58
-4 5 -7 0.32 1.16
4 -5 7 1.05 0.58
4 -5 8 3.85 1.09
4 -5 8 5.64 1.02
-4 5 -8 5.61 1.02
4 -5 8 4.75 0.92
-4 5 -8 6.01 1.68
4 -5 8 4.25 0.79
-4 5 -9 17.76 1.68
4 -5 9 18.02 1.66
-4 5 -9 19.31 2.56
-4 5 -10 1.7 0.84
4 -5 10 2.12 0.87
-4 5 -11 20.88 2
-4 5 -12 1.79 1.03
-4 4 12 1.91 1.92
4 -4 -11 5.96 1.3
-4 4 11 5.92 1.26
-4 4 11 8.8 2.5
4 -4 -10 5.99 1.24
-4 4 10 6.83 1.26
-4 4 10 7.25 1.88
4 -4 -9 0.2 0.82
-4 4 9 0.18 0.73
-4 4 9 0.74 1.27
4 -4 -9 -0.14 0.55
4 -4 -8 2.99 0.9
-4 4 8 2.51 0.97
4 -4 -8 1.9 0.73
-4 4 8 2.02 1.38
4 -4 -7 -0.36 0.72
-4 4 7 -0.16 0.74
4 -4 -7 0.6 0.69
-4 4 7 0.31 1.13
4 -4 -7 0.89 0.82
4 -4 -6 15.55 1.48
4 -4 -6 18.07 1.45
-4 4 6 15.27 2.17
4 -4 -6 20.81 1.7
-4 4 6 15.77 1.51
4 -4 -5 61.04 3.39
4 -4 -5 71.23 3.48
4 -4 -5 70.01 3.28
-4 4 5 68.01 4.22
-4 4 5 79.46 3.5
4 -4 -5 73.76 3.58
4 -4 -5 76.03 3.14
4 -4 -4 148.74 5.98
4 -4 -4 147.29 5.93
4 -4 -4 162.61 5.85
4 -4 -4 142.01 5.94
4 -4 -4 157.02 5.59
-4 4 4 160.42 5.74
4 -4 -4 148.91 6.04
4 -4 -3 269.04 9.74
4 -4 -3 282.67 9.62
4 -4 -3 275.96 9.79
4 -4 -3 297.75 9.48
-4 4 3 298.44 9.37
4 -4 -3 274.94 9.91
-4 4 2 4.33 0.64
4 -4 -2 2.68 0.65
4 -4 -2 3.69 0.75
4 -4 -2 2.38 0.67
4 -4 -2 2.85 0.71
4 -4 -2 2.98 0.8
4 -4 -1 0.81 0.54
4 -4 -1 0.34 0.55
4 -4 -1 0.23 0.5
4 -4 -1 0.78 0.5
4 -4 -1 -0.54 1.06
4 -4 -1 -0.16 0.57
4 -4 -1 0.59 0.49
4 -4 0 0.5 0.31
-4 4 0 0.44 0.57
4 -4 0 1.04 0.58
4 -4 0 0.66 0.63
4 -4 0 0.72 0.55
4 -4 0 0.65 0.46
4 -4 0 2.35 1.05
4 -4 0 -0.16 0.53
4 -4 0 0.58 0.47
4 -4 1 1.78 0.49
-4 4 -1 3.56 0.77
4 -4 1 2.61 0.67
4 -4 1 3.54 0.93
4 -4 1 3.08 0.71
4 -4 1 3.14 0.69
4 -4 1 1.25 1.05
4 -4 1 2.88 0.75
4 -4 1 2.63 0.68
4 -4 2 38.27 2.33
4 -4 2 40.78 2.29
4 -4 2 38.35 2.17
4 -4 2 40.4 2.28
4 -4 2 41.98 2.61
4 -4 2 39.8 2.91
4 -4 2 37.99 2.02
4 -4 3 32.07 1.94
4 -4 3 33.75 2.2
4 -4 3 29.01 1.96
4 -4 3 38.01 1.67
4 -4 3 32.05 1.94
4 -4 3 34.81 2.1
4 -4 3 33 2.6
4 -4 3 36.01 2.02
4 -4 4 6.85 0.99
4 -4 4 4.97 0.95
4 -4 4 7.82 0.91
4 -4 4 8.19 0.79
-4 4 -4 8.65 0.92
4 -4 4 7.57 0.91
4 -4 4 8.21 1.03
4 -4 4 6.76 1.27
4 -4 5 33.48 1.94
4 -4 5 36.11 2.29
-4 4 -5 36.27 2.11
4 -4 5 32.09 2.06
4 -4 5 38.75 1.95
4 -4 5 34.91 1.96
4 -4 5 33.85 2.17
4 -4 5 34.51 2.58
4 -4 5 37.32 2.32
4 -4 6 0.33 0.63
4 -4 6 1.36 0.61
4 -4 6 0.46 0.63
-4 4 -6 0.96 0.6
4 -4 6 0.54 0.53
4 -4 6 0.6 0.54
-4 4 -6 -0.31 1.19
4 -4 6 0.77 0.55
4 -4 7 1.68 0.65
-4 4 -7 2.44 0.82
4 -4 7 2.57 0.72
4 -4 7 2.22 0.72
-4 4 -7 1.31 1.25
4 -4 7 1.88 0.65
4 -4 8 1.83 0.79
-4 4 -8 0.5 0.66
4 -4 8 0.96 0.57
4 -4 8 1.21 0.69
-4 4 -8 0.68 1.4
4 -4 8 1.34 0.61
-4 4 -9 3.66 0.94
4 -4 9 4.18 0.92
-4 4 -9 1.08 1.2
4 -4 9 2.5 0.6
4 -4 10 2.43 0.64
-4 4 -10 2.6 0.99
4 -4 10 1.42 0.72
-4 4 -11 36.25 2.73
-4 4 -12 3.34 1.18
4 -3 -12 -0.41 0.87
-4 3 12 0.4 0.83
4 -3 -11 -0.2 0.85
-4 3 11 -0.36 0.74
-4 3 11 0.44 1.53
4 -3 -10 17.08 1.76
4 -3 -10 16.4 1.42
-4 3 10 19.2 2.81
-4 3 10 18.82 1.71
4 -3 -9 0.53 0.62
4 -3 -9 0.37 0.66
-4 3 9 0.74 0.67
-4 3 9 -0.75 1.3
4 -3 -8 6.42 1.11
-4 3 8 4.78 0.97
4 -3 -8 7.12 1.17
-4 3 8 8.33 1.82
4 -3 -8 8.45 1.04
4 -3 -7 5.54 0.98
4 -3 -7 3.89 0.88
-4 3 7 5.93 0.92
4 -3 -7 5.28 0.9
-4 3 7 4.53 1.58
4 -3 -7 4.68 0.95
4 -3 -7 4.63 0.83
-4 3 7 4.94 1.1
4 -3 -6 0.44 0.63
-4 3 6 -0.11 0.58
4 -3 -6 -0.14 0.53
-4 3 6 -0.3 1.07
4 -3 -6 -0.12 0.43
4 -3 -5 173.07 6.92
4 -3 -5 187.87 6.9
4 -3 -5 191.48 6.73
4 -3 -5 182.92 6.99
4 -3 -5 184.75 6.42
-4 3 5 188.89 8.17
-4 3 5 192.99 6.51
4 -3 -5 183.96 6.94
4 -3 -4 0.88 0.59
-4 3 4 1.25 0.48
4 -3 -4 0.98 0.66
4 -3 -4 1.66 0.74
4 -3 -4 0.73 0.63
4 -3 -4 1.23 0.63
4 -3 -4 1.18 0.53
4 -3 -4 1.03 0.6
-4 3 3 -0.06 0.34
4 -3 -3 0.42 0.48
4 -3 -3 0.14 0.52
4 -3 -3 -0.28 0.51
4 -3 -3 0.12 0.54
4 -3 -3 0.21 0.43
4 -3 -3 0.59 0.56
4 -3 -2 1.88 0.56
4 -3 -2 3.12 0.69
4 -3 -2 3.83 0.67
4 -3 -2 1.68 0.67
4 -3 -2 2.67 0.65
4 -3 -2 3.83 0.74
4 -3 -1 13.08 1.21
4 -3 -1 13.01 1.25
4 -3 -1 12.7 1.16
4 -3 -1 12.68 0.59
4 -3 -1 12.16 1.17
4 -3 -1 11.74 1.1
4 -3 -1 13.56 1.44
4 -3 -1 14.32 1.97
4 -3 -1 12.96 1.31
4 -3 0 4.06 0.69
4 -3 0 3.26 0.7
4 -3 0 3.94 0.39
4 -3 0 2.93 0.34
4 -3 0 2.65 0.61
4 -3 0 4.05 0.69
4 -3 0 3.69 0.98
4 -3 0 2.67 0.64
4 -3 0 4.81 1.23
4 -3 0 3.35 0.81
4 -3 1 68.89 3.31
4 -3 1 75.98 3.51
4 -3 1 79.92 3.48
4 -3 1 76.09 2.72
4 -3 1 76.03 3.34
4 -3 1 73.36 3.33
4 -3 1 75.01 4
4 -3 1 76.74 4.43
4 -3 1 71.48 3.53
4 -3 1 75.17 2.81
4 -3 2 6.78 0.87
4 -3 2 7.23 0.78
4 -3 2 8.02 1.03
4 -3 2 5.97 0.62
4 -3 2 6.61 0.93
4 -3 2 9.14 0.99
4 -3 2 5.94 0.86
4 -3 2 5.11 1.23
4 -3 3 117.74 4.59
4 -3 3 118.04 4.89
4 -3 3 121.23 4.28
4 -3 3 126.99 4.68
4 -3 3 122.62 4.82
4 -3 3 108.74 5.53
4 -3 3 115.73 4.55
4 -3 4 0.83 0.61
4 -3 4 0.62 0.55
4 -3 4 0.14 0.58
-4 3 -4 0.72 0.56
4 -3 4 0.09 0.41
4 -3 4 0.4 0.5
4 -3 4 0.1 0.46
4 -3 4 -0.23 0.8
4 -3 5 309.47 10.27
-4 3 -5 315.65 10.68
4 -3 5 318 10.58
4 -3 5 315.17 10.77
4 -3 5 332.36 10.35
4 -3 5 326.82 10.3
4 -3 5 321.08 10.74
-4 3 -5 315.71 12.39
4 -3 5 305.32 11.55
4 -3 6 119.37 4.5
-4 3 -6 116.56 5.03
4 -3 6 128.33 4.9
4 -3 6 119.62 5.04
4 -3 6 125.99 4.79
4 -3 6 129.39 4.57
-4 3 -6 117.46 6.37
-4 3 -7 0.33 0.66
4 -3 7 0.64 0.51
4 -3 7 1.16 0.62
4 -3 7 2.02 0.75
4 -3 7 1.21 0.61
-4 3 -7 0.67 1.18
-4 3 -8 -0.36 0.79
4 -3 8 0.14 0.62
4 -3 8 0.44 0.65
4 -3 8 -0.14 0.57
-4 3 -8 0.7 1.24
4 -3 8 0.47 0.51
-4 3 -9 1.19 0.76
4 -3 9 3.11 0.84
4 -3 9 3.89 0.89
-4 3 -9 2.21 1.38
4 -3 9 2.26 0.62
4 -3 10 11.97 1.13
-4 3 -10 11.47 1.59
4 -3 10 13.02 1.35
-4 3 -11 1.88 0.94
4 -3 11 1.84 0.83
4 -2 -13 0.59 0.91
4 -2 -12 0.58 0.74
-4 2 12 -0.18 0.69
-4 2 12 1.95 1.78
4 -2 -11 0.95 0.82
-4 2 11 0.16 0.71
-4 2 11 -0.45 1.55
4 -2 -10 0.18 0.65
-4 2 10 0.98 0.65
-4 2 10 0.42 1.34
4 -2 -10 0.48 0.51
4 -2 -9 1.6 0.76
-4 2 9 0.62 0.64
4 -2 -9 0.38 0.6
-4 2 9 1.54 1.36
4 -2 -9 0.52 0.7
4 -2 -8 2.57 0.78
4 -2 -8 3 0.71
-4 2 8 1.74 0.59
-4 2 8 3.94 1.47
4 -2 -8 1.17 0.63
-4 2 8 0.79 0.72
4 -2 -7 4.24 0.9
-4 2 7 5.77 0.77
-4 2 7 6.06 1.57
4 -2 -7 5.47 0.84
4 -2 -7 5.27 1.01
-4 2 7 5.08 1.06
4 -2 -7 6.17 0.94
4 -2 -6 29.55 2.15
4 -2 -6 34.2 2.02
4 -2 -6 33.22 2.1
4 -2 -6 35.01 1.8
-4 2 6 35.91 3.19
-4 2 6 34.18 2.39
4 -2 -6 35.77 2.17
-4 2 6 34.35 1.8
4 -2 -5 90.2 4.09
4 -2 -5 95.24 3.91
4 -2 -5 84.6 3.91
4 -2 -5 91.16 3.05
4 -2 -5 90.03 4.07
4 -2 -5 90.61 3.59
4 -2 -5 91.78 4.28
-4 2 5 94.96 5.27
-4 2 5 93.3 3.36
4 -2 -5 93.62 4.02
4 -2 -4 70.83 3.44
4 -2 -4 69.24 3.24
4 -2 -4 71.98 3.37
4 -2 -4 74.72 3.47
4 -2 -4 70.23 3.05
4 -2 -4 71.05 3.68
-4 2 4 72.76 2.47
4 -2 -4 69.94 3.36
4 -2 -3 0.14 0.43
4 -2 -3 0.29 0.21
4 -2 -3 0.25 0.44
4 -2 -3 -0.38 0.84
4 -2 -3 0.72 0.46
4 -2 -3 -0.4 0.46
4 -2 -3 0.13 0.49
4 -2 -2 1.44 0.54
4 -2 -2 1.25 0.28
4 -2 -2 0.82 0.46
4 -2 -2 0.87 0.48
4 -2 -2 0.6 0.79
4 -2 -2 0.87 0.53
4 -2 -2 0.77 0.44
4 -2 -2 0.97 0.52
4 -2 -1 6.64 0.9
4 -2 -1 7.05 0.59
4 -2 -1 9.14 1.01
4 -2 -1 6.68 0.87
4 -2 -1 7.78 0.9
4 -2 -1 4.91 1.15
4 -2 -1 7.8 0.93
4 -2 -1 10.08 1.65
4 -2 -1 9.05 1.04
4 -2 0 3.14 0.69
4 -2 0 4.79 0.78
4 -2 0 4.28 0.51
4 -2 0 4.57 0.76
4 -2 0 6.12 0.85
4 -2 0 2.92 0.98
4 -2 0 3.91 0.72
4 -2 0 2.72 0.94
4 -2 0 3.07 0.69
4 -2 1 23.62 1.59
4 -2 1 24.79 1.68
4 -2 1 23.5 1.7
4 -2 1 20.6 1.23
4 -2 1 22.15 1.54
4 -2 1 24.33 1.65
4 -2 1 25.02 2.34
4 -2 1 20.34 1.63
4 -2 1 21.89 1.1
4 -2 2 7.12 0.88
4 -2 2 7.27 0.73
4 -2 2 7.04 0.98
4 -2 2 8.87 0.98
4 -2 2 6.85 0.92
4 -2 2 6.65 0.89
4 -2 2 5.97 1.33
4 -2 2 6.7 0.7
4 -2 3 35.93 2.02
4 -2 3 38.67 1.92
4 -2 3 33.26 2.15
4 -2 3 38.55 2.04
4 -2 3 37.8 2.2
4 -2 3 39.5 2.92
4 -2 4 99.92 4.03
4 -2 4 106.85 4.32
4 -2 4 110.27 4.12
4 -2 4 100.75 4.38
4 -2 4 102.84 4.03
4 -2 4 113.23 4.51
4 -2 4 95.54 5.02
4 -2 5 221.33 7.63
4 -2 5 227.96 8
-4 2 -5 224.96 8.28
4 -2 5 235.48 7.92
4 -2 5 233.95 8.22
4 -2 5 239.57 7.71
4 -2 5 239.88 9.11
4 -2 6 40.33 1.99
4 -2 6 41.26 2.26
-4 2 -6 42.2 2.63
4 -2 6 42.53 2.32
4 -2 6 39.31 2.37
4 -2 6 44.9 2.52
4 -2 7 87.07 3.72
-4 2 -7 87.47 4.25
4 -2 7 87.93 3.86
4 -2 7 89.23 3.9
4 -2 7 86.86 3.97
-4 2 -8 0.39 0.68
4 -2 8 0.44 0.57
4 -2 8 1.18 0.63
4 -2 8 0.34 0.45
-4 2 -9 1.92 0.91
4 -2 9 2.4 0.8
4 -2 9 1.34 0.74
4 -2 9 1.32 0.51
-4 2 -10 -0.23 0.89
4 -2 10 0.15 0.61
4 -2 10 -0.1 0.45
-4 2 -11 3.26 1.15
4 -2 11 3.63 0.91
4 -1 -14 0.38 0.88
4 -1 -13 0.38 0.83
4 -1 -12 1.51 0.9
-4 1 12 0.49 1.89
4 -1 -11 3.2 0.71
4 -1 -11 1.28 0.87
-4 1 11 -0.46 1.66
4 -1 -10 24.93 2
4 -1 -10 20.85 1.87
4 -1 -10 26.94 1.7
-4 1 10 25.8 3.22
4 -1 -9 1.22 0.58
4 -1 -9 0.17 0.59
-4 1 9 1.14 0.53
-4 1 9 1.97 1.54
4 -1 -9 0.68 0.62
-4 1 9 0.6 0.76
4 -1 -8 -0.17 0.65
-4 1 8 0.52 0.47
4 -1 -8 0.64 0.51
4 -1 -8 0.69 0.53
-4 1 8 -1.12 1.32
4 -1 -8 0.82 0.64
-4 1 8 -0.19 0.63
4 -1 -7 57.9 2.82
4 -1 -7 53.37 2.36
4 -1 -7 56.92 2.89
4 -1 -7 59.46 2.49
4 -1 -7 65.65 3.54
-4 1 7 57.03 4.25
-4 1 7 60.12 3.27
-4 1 7 56.06 2.39
4 -1 -6 14.35 1.41
4 -1 -6 14.88 1.28
4 -1 -6 9.98 1.15
4 -1 -6 14.01 1.38
4 -1 -6 13.55 1.09
4 -1 -6 10.63 1.5
-4 1 6 16.31 2.24
-4 1 6 13.16 1.45
4 -1 -6 12.63 1.25
-4 1 6 14.12 0.89
4 -1 -5 0.25 0.45
4 -1 -5 0.79 0.44
4 -1 -5 0.15 0.47
-4 1 5 -0.06 0.2
4 -1 -5 0.25 0.51
4 -1 -5 0.2 0.83
4 -1 -5 -0.19 0.41
4 -1 -5 -0.14 0.51
-4 1 5 -0.49 0.58
4 -1 -4 0.12 0.45
4 -1 -4 0.84 0.51
4 -1 -4 -0.13 0.5
4 -1 -4 -0.22 0.89
4 -1 -4 0.1 0.45
4 -1 -4 0.69 0.53
4 -1 -3 0.13 0.42
4 -1 -3 0.38 0.51
4 -1 -3 -0.11 0.45
4 -1 -3 -0.46 1.07
4 -1 -3 0.27 0.44
4 -1 -3 -0.49 0.46
4 -1 -2 32.46 1.98
4 -1 -2 29.82 1.9
4 -1 -2 30.52 1.52
4 -1 -2 28.04 1.88
4 -1 -2 31.36 1.93
4 -1 -2 27.92 1.78
4 -1 -2 33.85 2.67
4 -1 -2 29.43 1.89
4 -1 -1 100.72 4.22
4 -1 -1 104.55 4.32
4 -1 -1 100.51 3.77
4 -1 -1 101.32 4.32
4 -1 -1 99.23 4.2
4 -1 -1 109.27 4.25
4 -1 -1 102.93 5.29
4 -1 -1 118.45 5.82
4 -1 -1 110.28 4.35
4 -1 0 40.07 2.23
4 -1 0 44.44 2.36
4 -1 0 39.73 1.93
4 -1 0 42.24 2.35
4 -1 0 43.98 2.28
4 -1 0 40.01 2.25
4 -1 0 45.9 3.27
4 -1 0 41.28 3.17
4 -1 0 38.1 2.23
4 -1 1 89.53 3.63
4 -1 1 84.01 3.72
4 -1 1 83.95 3.33
4 -1 1 86.09 3.77
4 -1 1 79.76 3.52
4 -1 1 90.58 3.75
4 -1 1 89.61 4.87
4 -1 1 81.19 2.93
4 -1 1 85.69 3.69
4 -1 2 0.63 0.47
4 -1 2 0.09 0.4
4 -1 2 -0.13 0.46
4 -1 2 0.42 0.46
4 -1 2 -0.25 0.76
4 -1 2 0.4 0.52
4 -1 3 90.38 3.66
4 -1 3 89.82 3.68
4 -1 3 86.58 3.94
4 -1 3 95.4 3.71
4 -1 3 91.07 3.93
4 -1 3 93.58 4.84
4 -1 4 315.47 10
4 -1 4 315.27 10.36
4 -1 4 307.41 10.18
4 -1 4 298.78 10.39
4 -1 4 308.65 10.44
4 -1 4 325.74 10.04
-4 1 -4 287.22 11.93
4 -1 4 308.65 11.51
4 -1 5 28 1.58
4 -1 5 30.34 1.9
4 -1 5 30.37 1.89
4 -1 5 30.23 2.02
4 -1 5 29.13 1.57
-4 1 -5 27.73 2.79
4 -1 5 32.97 2.59
4 -1 6 33.43 1.61
4 -1 6 34.27 2.03
-4 1 -6 31.49 2.35
4 -1 6 35.99 2.13
4 -1 6 35.76 2.14
4 -1 6 34.83 2.18
-4 1 -6 31.17 3.1
4 -1 7 27.51 1.73
-4 1 -7 21.96 1.99
4 -1 7 25.33 1.83
4 -1 7 27.37 1.94
4 -1 7 25.94 1.77
-4 1 -7 22.3 2.75
-4 1 -8 8.24 1.31
4 -1 8 6.61 1.07
4 -1 8 7.68 0.94
4 -1 8 7.91 1.11
-4 1 -8 5.16 1.7
-4 1 -9 0.69 0.76
4 -1 9 0.75 0.58
4 -1 9 0.86 0.55
-4 1 -10 1.98 1.02
4 -1 10 2.26 0.78
4 -1 10 2.32 0.6
4 -1 11 -0.15 0.57
4 0 -14 0.73 0.9
4 0 -13 4.21 1.09
-4 0 13 6.97 2.46
4 0 -12 2.55 0.92
-4 0 12 1 1.82
4 0 -11 7.21 1.25
-4 0 11 7.88 2.24
4 0 -11 12.19 1.46
4 0 -10 5.08 1.05
-4 0 10 7.8 2.15
4 0 -10 6.58 0.89
4 0 -10 5.17 1.06
4 0 -9 4.74 0.99
-4 0 9 6.52 1.9
4 0 -9 6.52 1.11
-4 0 9 7.37 1.26
4 0 -9 6.39 0.86
4 0 -8 3.43 0.74
4 0 -8 4.62 0.83
4 0 -8 5.17 1.24
-4 0 8 4.26 1.56
4 0 -8 5 0.95
-4 0 8 4.82 1.04
4 0 -7 50.63 2.58
4 0 -7 47.21 2.25
4 0 -7 47.02 2.56
4 0 -7 49.18 3.18
-4 0 7 49.76 4.03
-4 0 7 45.32 2.78
4 0 -6 7.93 0.92
4 0 -6 6.33 0.99
4 0 -6 7.6 1.02
4 0 -6 6.92 0.84
-4 0 6 6.94 1.75
4 0 -6 7.23 0.96
4 0 -6 7.17 1.42
4 0 -6 4.31 0.93
-4 0 6 6.3 0.56
-4 0 6 7.82 1.16
-4 0 6 7.65 0.54
4 0 -5 6.36 0.83
4 0 -5 6.93 0.98
4 0 -5 6.33 0.93
4 0 -5 7.16 0.98
4 0 -5 7.85 0.93
4 0 -5 6.84 1.43
4 0 -5 10.54 1.15
-4 0 4 23.02 1.75
4 0 -4 24.05 1.69
4 0 -4 22.85 1.64
-4 0 4 22.91 1.71
4 0 -4 21.02 1.59
4 0 -4 19.83 1.46
4 0 -4 19.06 2.16
4 0 -4 21.26 1.52
-4 0 3 34.92 2.22
4 0 -3 34.64 2.09
4 0 -3 34.76 2.09
-4 0 3 33.29 2.11
4 0 -3 35.81 2.11
4 0 -3 33.96 2.07
4 0 -3 35.52 2.02
4 0 -3 33.51 2.84
4 0 -3 34.14 1.94
-4 0 2 99.74 4.37
4 0 -2 103.09 4.22
4 0 -2 99.91 4.18
-4 0 2 97.39 4.2
4 0 -2 101.41 4.23
4 0 -2 102.53 4.12
4 0 -2 98.49 4.14
4 0 -2 101.83 5.41
4 0 -2 105.93 5.65
4 0 -2 95.76 3.96
4 0 -1 52.84 2.76
-4 0 1 60.1 3
4 0 -1 53.2 2.7
4 0 -1 53.96 2.55
4 0 -1 55.18 2.82
4 0 -1 60.35 2.83
4 0 -1 55.94 2.73
4 0 -1 56.55 3.92
4 0 -1 54.67 3.84
4 0 -1 56.35 2.66
4 0 0 2.4 0.59
4 0 0 2.25 0.27
4 0 0 2.39 0.57
4 0 0 3.71 0.76
4 0 0 3.94 0.73
4 0 0 2.74 0.63
4 0 0 3.62 1.12
4 0 0 1.25 0.54
-4 0 0 2.36 0.72
4 0 0 3.01 0.66
-4 0 -1 143.94 5.54
4 0 1 129.04 5.2
4 0 1 138.75 5.11
4 0 1 126.44 4.97
-4 0 -1 141.16 5.19
4 0 1 132.38 5.28
4 0 1 146.5 5.35
4 0 1 139.67 5.1
4 0 1 148.1 6.61
4 0 1 141.27 5.14
4 0 1 131.29 4.44
4 0 2 152.52 5.57
4 0 2 153.59 5.68
-4 0 -2 159.39 5.68
4 0 2 151.55 5.85
4 0 2 145.41 5.8
4 0 2 157.46 5.6
4 0 2 157.56 7.01
4 0 2 163.57 5.71
-4 0 -3 36.79 2.32
4 0 3 42.96 2.28
4 0 3 39.99 2.05
4 0 3 40.23 2.2
4 0 3 38.87 2.27
4 0 3 35.96 2.21
4 0 3 39.68 2
-4 0 -3 42.65 3.3
4 0 3 32.55 2.71
4 0 4 12.11 1.22
4 0 4 13.56 1.06
4 0 4 14.76 1.29
4 0 4 13.8 1.27
4 0 4 11.6 0.99
-4 0 -4 11.69 1.96
4 0 4 11.61 1.62
4 0 5 9.66 1.04
4 0 5 10.87 1.13
4 0 5 9.33 1.1
4 0 5 9.47 1.14
-4 0 -5 8.09 1.75
4 0 6 26.39 1.73
4 0 6 29.08 1.95
4 0 6 27.13 1.91
4 0 6 28.29 1.82
-4 0 -6 24.23 2.83
4 0 7 0.92 0.68
4 0 7 2.72 0.67
4 0 7 0.46 0.49
4 0 7 2.48 0.68
-4 0 -7 4.31 1.59
4 0 8 17.47 1.34
4 0 8 13.62 1.51
4 0 8 14.14 1.4
4 0 9 -0.11 0.48
4 0 9 -0.15 0.62
4 0 10 1.54 0.77
4 0 10 0.1 0.5
4 1 -14 0.18 0.76
4 1 -13 29.29 2.21
-4 -1 13 20.14 3.52
4 1 -12 3.01 0.92
-4 -1 12 8.63 2.47
4 1 -11 2.44 0.91
-4 -1 11 2.37 1.68
4 1 -11 1.9 0.79
4 1 -10 2.91 0.86
4 1 -10 2.21 0.65
-4 -1 10 1.79 1.49
4 1 -10 2.22 0.79
-4 -1 10 1.74 0.93
4 1 -9 -0.17 0.64
4 1 -9 0.26 0.55
4 1 -9 1.25 0.98
-4 -1 9 -0.43 1.47
4 1 -9 -0.17 0.66
-4 -1 9 0.18 0.66
-4 -1 8 8.52 0.9
4 1 -8 10.04 1.13
4 1 -8 11.41 1.72
-4 -1 8 7.7 1.9
4 1 -8 9.81 1.07
4 1 -7 1.98 0.63
-4 -1 7 0.44 0.39
4 1 -7 1.41 0.69
4 1 -7 1.69 0.58
-4 -1 7 1.57 0.7
4 1 -7 1.47 0.58
4 1 -7 0.77 1.16
-4 -1 7 1.92 1.36
-4 -1 7 1.15 0.62
-4 -1 6 13.33 1.33
4 1 -6 11.08 1.24
4 1 -6 9.01 1.06
4 1 -6 12.35 1.3
-4 -1 6 9.72 1.2
4 1 -6 11.58 1.84
4 1 -6 11.58 1.16
-4 -1 6 10.67 0.7
4 1 -5 0.1 0.38
4 1 -5 -0.29 0.51
4 1 -5 -0.13 0.47
-4 -1 5 -0.29 0.53
4 1 -5 1.13 1
4 1 -5 0.28 0.47
-4 -1 5 -0.15 0.6
-4 -1 5 0.29 0.57
-4 -1 4 30.18 1.93
4 1 -4 31.58 1.96
-4 -1 4 26.33 1.95
-4 -1 4 32.91 2.06
4 1 -4 26.74 1.84
4 1 -4 23.19 2.59
-4 -1 4 29.23 1.98
4 1 -4 29.91 1.72
-4 -1 3 43.48 2.36
4 1 -3 42.31 2.35
-4 -1 3 45.72 2.59
-4 -1 3 39.13 2.36
4 1 -3 39.47 2.29
4 1 -3 39.48 2.3
4 1 -3 37.12 3.25
4 1 -3 44.93 2.16
-4 -1 2 36.44 2.17
4 1 -2 37.39 2.16
-4 -1 2 36.48 2.32
-4 -1 2 38.69 2.24
4 1 -2 41.1 2.23
4 1 -2 38.14 2.2
4 1 -2 36.8 3.19
4 1 -2 35.01 3.04
4 1 -2 38 1.95
4 1 -1 9.53 0.99
-4 -1 1 8.37 1.12
4 1 -1 8.98 1.03
4 1 -1 9.98 1
4 1 -1 10.1 1.09
4 1 -1 10.74 1.97
4 1 -1 10.23 1.62
4 1 -1 8.34 0.49
4 1 -1 8 0.84
-4 -1 0 31.37 1.91
4 1 0 30.49 1.86
-4 -1 0 33.11 2.18
4 1 0 32.25 1.97
-4 -1 0 33.46 1.99
4 1 0 29.2 1.8
4 1 0 34.49 2.06
4 1 0 28.64 2.66
4 1 0 31.7 1.74
4 1 0 34.14 1.51
-4 -1 -1 47 2.44
4 1 1 47.54 2.41
-4 -1 -1 52.56 2.81
4 1 1 51.05 2.61
-4 -1 -1 52.5 2.55
4 1 1 49.03 2.41
4 1 1 51.03 2.62
4 1 1 42.21 3.24
4 1 1 52.01 2.35
4 1 1 49.11 2.14
4 1 2 47.12 2.11
-4 -1 -2 46.13 2.28
4 1 2 43.99 2.19
4 1 2 40.76 2.38
-4 -1 -2 46.8 2.3
4 1 2 41.61 2.14
4 1 2 45.01 2.46
4 1 2 43.39 3.16
4 1 2 44.48 2.17
-4 -1 -3 11.86 1.06
-4 -1 -3 14.69 1.41
4 1 3 15.55 1.38
-4 -1 -3 13.86 1.14
4 1 3 11.51 1.19
4 1 3 16.77 1.87
-4 -1 -3 12.08 1.94
4 1 3 11.21 1.01
4 1 4 26.88 1.81
-4 -1 -4 28.99 2.02
4 1 4 31.52 2.04
-4 -1 -4 30.69 1.73
4 1 4 30.75 1.91
-4 -1 -4 27.25 2.79
4 1 4 32.15 2.59
-4 -1 -5 35.39 2.2
4 1 5 33.14 1.97
4 1 5 33.31 2.18
-4 -1 -5 31.95 1.7
4 1 5 28.63 1.98
-4 -1 -5 32.08 3.11
4 1 5 28.29 1.88
4 1 6 4.9 0.95
4 1 6 3.3 0.72
4 1 6 5.98 0.95
-4 -1 -6 4.24 1.56
4 1 7 0.5 0.68
4 1 7 0.49 0.47
4 1 7 -0.3 0.72
-4 -1 -7 1.49 1.39
4 1 8 6.33 0.9
4 1 8 5.03 0.94
4 1 9 7.75 0.92
4 1 9 7.93 1.16
4 1 10 0.32 0.69
4 2 -14 1.53 0.83
4 2 -13 -0.17 0.74
-4 -2 13 -0.55 2.01
4 2 -12 1.2 0.85
-4 -2 12 -0.52 1.79
4 2 -12 0.67 0.66
4 2 -11 3.77 0.91
4 2 -11 2.98 0.78
-4 -2 11 2.95 1.64
4 2 -11 2.66 0.85
-4 -2 10 0.14 0.6
4 2 -10 0.34 0.65
-4 -2 10 1.57 0.74
4 2 -10 1.92 1.17
-4 -2 10 -0.14 0.61
4 2 -10 0.97 0.7
4 2 -9 19.88 1.58
-4 -2 9 22.86 1.71
4 2 -9 18.91 1.72
-4 -2 9 22.3 1.85
4 2 -9 19.54 1.74
4 2 -9 23.22 2.43
-4 -2 8 27.44 1.96
-4 -2 8 31.05 2.16
4 2 -8 27.47 2.68
-4 -2 8 28.41 1.72
-4 -2 8 26.02 2.05
-4 -2 7 23.2 1.77
4 2 -7 25.14 1.86
-4 -2 7 25.72 1.85
-4 -2 7 20.73 1.76
4 2 -7 21.22 1.71
4 2 -7 25.19 2.55
-4 -2 7 21.13 1.32
-4 -2 7 23.81 1.83
-4 -2 6 7.46 1.01
4 2 -6 8.12 1.06
-4 -2 6 6.62 1.07
4 2 -6 9.46 1.85
-4 -2 6 7.96 1.12
-4 -2 6 7.82 0.67
4 2 -6 8.9 1.09
-4 -2 6 7.56 1.13
-4 -2 5 11.18 1.21
4 2 -5 10.55 1.17
-4 -2 5 9.95 1.25
4 2 -5 10.98 1.89
-4 -2 5 11.05 1.23
-4 -2 5 10.53 1.18
4 2 -5 8.62 1.04
-4 -2 5 10.37 0.6
-4 -2 4 96.93 4.08
4 2 -4 87.34 3.97
-4 -2 4 99.21 4.28
-4 -2 4 89.72 4.1
4 2 -4 91.43 3.95
4 2 -4 93.47 5.43
4 2 -4 92.96 3.96
-4 -2 4 97.79 4.08
-4 -2 3 8.55 1.01
4 2 -3 5.94 0.87
-4 -2 3 5.93 0.97
-4 -2 3 8.96 1.08
4 2 -3 6.6 1.76
4 2 -3 8.91 1.01
4 2 -3 9.53 1.66
4 2 -3 9.46 0.85
4 2 -3 7.99 0.97
4 2 -2 22.51 1.59
-4 -2 2 23.15 1.77
4 2 -2 22.69 1.58
4 2 -2 25.86 1.68
4 2 -2 24.65 2.71
4 2 -2 23.56 2.53
4 2 -2 22.7 1.1
4 2 -2 21.06 1.33
4 2 -1 15.7 1.27
4 2 -1 16.89 1.47
-4 -2 1 13.99 1.4
4 2 -1 15.35 1.31
4 2 -1 16.16 1.28
4 2 -1 14.8 1.99
4 2 -1 17.29 1.04
4 2 -1 12.77 1.01
4 2 0 1.47 0.48
-4 -2 0 2.02 0.7
4 2 0 1.12 0.54
4 2 0 1.05 0.45
4 2 0 0.94 0.44
-4 -2 0 0.61 0.61
4 2 0 1.31 0.6
-4 -2 0 1.11 0.55
4 2 0 1.37 0.92
4 2 0 1.15 0.42
-4 -2 -1 16.39 1.33
4 2 1 17.81 1.56
-4 -2 -1 14.91 1.28
4 2 1 18.3 2.05
4 2 1 17.45 1.42
4 2 1 14.53 1.02
4 2 1 15.4 1.22
-4 -2 -2 0.43 0.48
-4 -2 -2 0.45 0.66
4 2 2 1.97 0.54
4 2 2 1.63 0.69
-4 -2 -2 0.9 0.51
4 2 2 1 0.8
4 2 2 0.77 0.4
-4 -2 -3 20.97 1.49
-4 -2 -3 23.52 1.83
4 2 3 24.41 1.88
-4 -2 -3 25.42 1.6
-4 -2 -3 24.63 2.58
4 2 3 23.44 2.22
4 2 3 20.2 1.25
4 2 3 24.94 1.67
4 2 4 20.76 1.58
-4 -2 -4 17.57 1.31
-4 -2 -4 18.75 1.61
4 2 4 20.63 1.74
-4 -2 -4 19.07 1.36
-4 -2 -4 17.07 2.34
-4 -2 -5 1.2 0.7
-4 -2 -5 1.13 0.57
4 2 5 1.44 0.73
4 2 5 1.34 0.68
-4 -2 -5 1.9 0.55
-4 -2 -5 2.43 1.59
4 2 6 20.48 1.54
-4 -2 -6 24.71 1.83
4 2 6 24.65 1.96
-4 -2 -6 21.22 1.34
-4 -2 -6 20.25 2.74
4 2 7 1.37 0.58
-4 -2 -7 0.92 0.42
4 2 7 1.4 0.7
-4 -2 -7 1.02 0.7
4 2 8 0.24 0.5
4 2 8 0.96 0.68
4 2 9 0.48 0.67
-4 -3 13 3.1 1.14
-4 -3 12 0.19 0.8
4 3 -12 0.17 0.67
-4 -3 12 0.19 0.69
4 3 -11 8.09 1.17
-4 -3 11 5.06 1.04
4 3 -11 4.6 0.98
-4 -3 11 5.67 1.12
-4 -3 10 9.94 1.22
-4 -3 10 11.01 1.31
4 3 -10 11.58 1.32
-4 -3 10 14.95 1.53
4 3 -10 7.59 1.72
-4 -3 10 10.04 1.38
4 3 -10 10.41 1.31
-4 -3 9 14.79 1.5
-4 -3 9 15.45 1.48
4 3 -9 11.1 1.33
-4 -3 9 14.08 1.53
4 3 -9 16.51 1.49
4 3 -9 12.8 2.01
-4 -3 9 11.05 2.37
-4 -3 9 16.21 1.6
-4 -3 8 15.95 1.57
-4 -3 8 20.4 1.67
-4 -3 8 18.37 1.72
4 3 -8 13.43 2.07
-4 -3 8 20.46 2.86
-4 -3 8 21.17 1.74
-4 -3 7 5.3 1.04
-4 -3 7 3.98 0.71
4 3 -7 4.51 0.87
-4 -3 7 4.49 0.97
4 3 -7 4.19 1.5
-4 -3 7 3.6 0.86
-4 -3 7 3.62 0.8
4 3 -7 3.16 0.76
-4 -3 6 1.78 0.67
4 3 -6 1.4 0.57
-4 -3 6 0.6 0.42
-4 -3 6 0.78 0.67
4 3 -6 2 1.31
-4 -3 6 0.47 0.56
-4 -3 6 1.65 0.7
4 3 -6 1.24 0.6
-4 -3 5 21.63 1.68
4 3 -5 17.12 1.45
-4 -3 5 19.96 1.69
-4 -3 5 15.71 1.52
4 3 -5 19.06 1.51
4 3 -5 20.2 2.55
-4 -3 5 23.81 1.67
-4 -3 5 19.82 1.12
-4 -3 4 11.08 1.24
4 3 -4 9.73 1.08
-4 -3 4 9.37 1.2
4 3 -4 10.99 1.11
4 3 -4 8.82 1.81
-4 -3 4 9.54 1.19
-4 -3 4 11.17 1.14
-4 -3 3 12.94 1.28
4 3 -3 13.58 1.23
-4 -3 3 13.76 1.35
4 3 -3 15.48 1.3
-4 -3 3 10.46 1.27
4 3 -3 10.19 2
-4 -3 2 11.42 1.31
4 3 -2 11.84 2.16
4 3 -2 10.73 0.95
4 3 -1 0.88 0.34
-4 -3 1 0.91 0.54
4 3 -1 0.21 0.46
-4 -3 1 -0.16 0.58
-4 -3 1 0.68 0.6
-4 -3 0 27.82 1.81
4 3 0 29.39 2.1
-4 -3 0 24.51 1.89
-4 -3 0 24.87 1.77
4 3 0 24.56 1.25
4 3 0 22.02 1.66
4 3 1 3.79 0.47
-4 -3 -1 4.11 0.83
4 3 1 4.05 0.85
4 3 1 4.07 0.89
-4 -3 -1 3.78 0.77
-4 -3 -2 23.35 1.59
4 3 2 19.43 1.73
-4 -3 -2 18.17 1.64
-4 -3 -2 23.56 1.6
4 3 2 19.31 1.59
-4 -3 -3 8.33 1.02
4 3 3 10.98 1.24
-4 -3 -3 10.32 1.29
4 3 3 10.82 1.35
-4 -3 -3 8.5 1.03
-4 -3 -3 10.66 2.11
-4 -3 -4 1.91 0.62
-4 -3 -4 1.59 0.83
4 3 4 0.77 0.63
4 3 4 0.18 0.7
-4 -3 -4 0.75 0.54
-4 -3 -4 0.34 1.21
-4 -3 -5 40.94 2.16
-4 -3 -5 43.77 2.6
4 3 5 45.21 2.81
-4 -3 -5 42.62 2.18
-4 -3 -5 38.33 3.64
4 3 5 44.03 2.67
-4 -3 -6 0.95 0.65
-4 -3 -6 1.84 0.56
4 3 6 1.46 0.78
-4 -3 -6 1.65 0.56
-4 -3 -7 0.37 0.42
4 3 7 1.6 0.95
4 3 7 -0.13 0.48
-4 -3 -7 0.08 0.4
-4 -3 -7 0.15 0.67
4 3 8 0.22 0.73
4 3 8 0.9 0.6
-4 -3 -8 0.15 0.68
4 3 9 0.72 1.09
-4 -4 13 2.2 1.12
-4 -4 13 0.8 0.8
-4 -4 13 3.5 2.18
-4 -4 12 2.87 1.01
-4 -4 12 2.52 0.95
-4 -4 12 2.77 1.79
-4 -4 11 16.78 1.7
-4 -4 11 14.79 1.64
-4 -4 11 16.11 1.53
-4 -4 11 16.41 1.65
-4 -4 11 10.01 2.64
-4 -4 10 4.87 1.02
-4 -4 10 6.03 1.15
-4 -4 10 4.65 1
4 4 -10 6.59 1.64
-4 -4 10 5.17 1.09
-4 -4 10 0.5 1.62
-4 -4 10 6.11 1.07
-4 -4 9 0.17 0.72
-4 -4 9 0.42 0.6
-4 -4 9 1.13 0.73
4 4 -9 -0.65 1.15
-4 -4 9 0.54 0.63
-4 -4 9 -0.47 1.63
-4 -4 9 -0.15 0.62
-4 -4 8 12.78 1.47
-4 -4 8 16 1.54
-4 -4 8 17.91 1.68
4 4 -8 15.64 2.28
-4 -4 8 17.24 1.55
-4 -4 7 0.64 0.66
4 4 -7 0.35 1.22
-4 -4 7 -0.16 0.62
-4 -4 7 0.5 0.65
-4 -4 7 -0.27 0.65
-4 -4 6 16.87 1.54
-4 -4 6 11.81 1.34
-4 -4 6 14.37 1.47
4 4 -6 11.62 2.22
-4 -4 6 14.84 1.35
-4 -4 6 15.47 1.2
-4 -4 5 0.3 0.52
-4 -4 5 0.25 0.46
4 4 -5 -0.74 1.49
-4 -4 5 0.48 0.6
-4 -4 5 -0.16 0.6
-4 -4 5 -0.24 0.59
-4 -4 4 0.29 0.56
-4 -4 4 1.28 0.47
4 4 -4 -1.15 1.47
-4 -4 4 1.09 0.59
4 4 -4 -0.94 1.11
-4 -4 4 0.81 0.65
-4 -4 4 0.66 0.56
4 4 -3 -0.44 0.56
4 4 -3 -1.59 1.41
-4 -4 3 0.3 0.61
4 4 -3 0.31 1.02
-4 -4 3 0.16 0.6
-4 -4 2 63.43 3.28
4 4 -2 69.39 4.96
4 4 -2 65.91 4.16
4 4 -2 52.63 2.82
-4 -4 1 9.88 1.17
4 4 -1 9.81 1.18
-4 -4 1 9.76 1.18
4 4 -1 9 1.66
-4 -4 1 8.55 1.22
-4 -4 0 0.53 0.6
4 4 0 -0.15 0.65
4 4 0 0.76 0.78
-4 -4 0 0.84 0.56
4 4 0 0.52 0.87
-4 -4 -1 5.07 0.92
4 4 1 4.9 1
4 4 1 6.32 1.2
-4 -4 -1 5.83 1
-4 -4 -1 4.74 0.84
4 4 1 6.17 1.34
-4 -4 -2 0.13 0.56
4 4 2 -0.49 0.7
4 4 2 -0.19 0.68
-4 -4 -2 0.5 0.69
-4 -4 -2 0.39 0.54
4 4 2 -0.24 0.77
-4 -4 -3 15.83 1.35
-4 -4 -3 14.91 1.6
4 4 3 14.9 1.63
-4 -4 -3 16.95 1.42
-4 -4 -3 19.41 2.57
4 4 3 14.78 1.58
-4 -4 -4 28.57 1.81
4 4 4 30.83 2.32
-4 -4 -4 27.49 2.11
-4 -4 -4 27.2 1.81
-4 -4 -4 27.96 3.06
4 4 4 28.35 2.19
-4 -4 -5 31.51 1.89
-4 -4 -5 35.94 2.36
-4 -4 -5 34.64 2
-4 -4 -5 26.65 3.14
4 4 5 29.5 2.35
-4 -4 -6 -0.31 0.57
-4 -4 -6 0.68 0.67
4 4 6 0.42 0.88
-4 -4 -6 -0.21 0.5
-4 -4 -7 0.5 0.71
4 4 7 0.23 0.86
-4 -4 -7 -0.27 0.49
4 4 8 1 1.04
-4 -4 -8 -0.47 0.71
4 5 -14 6.48 1.22
-4 -5 13 2.28 1.2
-4 -5 13 1.25 1.01
-4 -5 12 8.85 1.44
-4 -5 12 3.88 1.09
-4 -5 12 5.71 2.34
-4 -5 11 3.15 0.98
-4 -5 11 2.23 0.91
-4 -5 11 2.82 0.98
-4 -5 11 0.54 1.57
-4 -5 10 0.37 0.73
-4 -5 10 -0.51 0.72
-4 -5 10 0.34 0.64
-4 -5 10 -0.19 0.66
-4 -5 10 1.03 1.54
-4 -5 10 0.96 0.81
-4 -5 9 7.38 1.22
-4 -5 9 3.27 0.89
4 5 -9 3.88 1.45
-4 -5 9 5.42 1.11
-4 -5 9 4.8 0.97
-4 -5 9 5.89 1.04
-4 -5 8 0.17 0.68
-4 -5 8 0.28 0.58
4 5 -8 0.37 1.26
-4 -5 8 -0.18 0.63
-4 -5 8 0.51 0.71
-4 -5 8 -0.27 0.69
-4 -5 7 -0.17 0.77
-4 -5 7 -0.17 0.66
-4 -5 7 -0.18 0.56
-4 -5 7 0.13 0.72
-4 -5 6 0.52 0.65
-4 -5 6 0.33 0.66
4 5 -6 0.39 1.3
-4 -5 6 1.22 0.67
-4 -5 6 1.22 0.58
-4 -5 5 0.32 0.59
-4 -5 5 -0.35 0.73
4 5 -5 2.82 1.58
4 5 -5 1.27 1.03
-4 -5 5 0.17 0.65
-4 -5 5 1 0.59
4 5 -4 1.72 0.71
-4 -5 4 3.94 0.93
-4 -5 4 2.45 0.88
4 5 -4 4.6 1.75
4 5 -4 3.09 1.27
-4 -5 4 5.13 0.96
-4 -5 4 4.11 0.72
-4 -5 3 24.6 1.92
4 5 -3 18.57 2.9
4 5 -3 18.23 2.21
4 5 -3 21 1.74
-4 -5 2 47.65 2.7
-4 -5 2 49.94 2.92
4 5 -2 46.08 4.19
4 5 -2 47.37 3.49
4 5 -2 42.31 2.64
-4 -5 1 19.29 1.61
-4 -5 1 16.81 1.66
-4 -5 1 19.31 1.63
4 5 -1 13.3 1.88
4 5 -1 19.42 1.73
-4 -5 0 3.93 0.85
4 5 0 1.84 0.86
4 5 0 4.03 1.04
-4 -5 0 2.89 0.82
4 5 0 2.72 1.1
-4 -5 -1 1.07 0.71
-4 -5 -1 0.85 0.67
4 5 1 2.28 0.93
4 5 1 -0.43 0.79
-4 -5 -1 1.49 0.69
4 5 1 0.47 0.77
-4 -5 -2 18.31 1.55
4 5 2 15.47 1.75
-4 -5 -2 22.02 1.88
-4 -5 -2 17.65 1.56
4 5 2 18.31 1.8
-4 -5 -3 8.61 1.15
4 5 3 11.21 1.55
-4 -5 -3 9.87 1.36
-4 -5 -3 5.18 1.65
-4 -5 -3 8.55 1.11
-4 -5 -4 12.49 1.27
4 5 4 11.28 1.62
-4 -5 -4 13.74 1.35
-4 -5 -4 14.21 1.58
-4 -5 -4 14.98 2.41
-4 -5 -5 -0.12 0.54
4 5 5 0.23 0.81
-4 -5 -5 0.37 0.78
-4 -5 -5 -0.51 0.65
4 5 6 0.49 0.93
-4 -5 -6 1.11 0.86
-4 -5 -6 -0.36 0.56
-4 -5 -7 1.99 0.78
4 5 7 0.26 0.97
-4 -6 13 2.8 1.19
-4 -6 13 5.55 1.3
-4 -6 12 3.43 1.18
-4 -6 12 2.81 1.09
-4 -6 12 4.09 2.13
-4 -6 11 2.59 0.96
-4 -6 11 0.63 0.77
-4 -6 11 2.04 0.82
-4 -6 10 3.49 0.96
-4 -6 10 5.21 1.08
-4 -6 10 3.93 1.14
-4 -6 10 3.09 0.88
-4 -6 9 -0.19 0.93
-4 -6 9 0.19 0.73
-4 -6 9 -0.17 0.67
-4 -6 9 0.2 0.63
-4 -6 9 0.14 0.56
-4 -6 8 2.42 0.88
-4 -6 8 3.95 0.96
-4 -6 8 2.8 0.98
4 6 -8 4.71 1.7
-4 -6 8 2.36 0.89
-4 -6 8 3.23 0.82
-4 -6 7 5.27 1.09
-4 -6 7 8.12 1.13
-4 -6 7 6.38 1.16
4 6 -7 10.2 2.16
-4 -6 7 8.23 1.27
-4 -6 7 5.7 0.92
-4 -6 6 0.35 0.68
-4 -6 6 0.54 0.66
-4 -6 6 -0.19 0.75
4 6 -6 2.09 1.85
4 6 -6 0.32 1.22
-4 -6 6 0.37 0.66
-4 -6 6 0.23 0.53
-4 -6 5 5.73 1.13
-4 -6 5 6.36 0.96
-4 -6 5 6.62 1.17
4 6 -5 8.26 2.21
4 6 -5 6.53 1.55
-4 -6 5 7.15 1.15
-4 -6 5 5.76 0.87
4 6 -4 5.27 1.08
-4 -6 4 4.44 1.02
-4 -6 4 7.38 0.98
-4 -6 4 5.31 1.12
4 6 -4 4.95 1.92
4 6 -4 3.84 1.31
-4 -6 4 4.32 0.98
-4 -6 4 6.1 0.76
4 6 -3 5.71 1.2
-4 -6 3 6.67 1.19
4 6 -3 4.66 1.87
4 6 -3 2.48 1.18
4 6 -2 5.62 1.21
-4 -6 2 6.94 1.13
-4 -6 2 7.27 1.18
4 6 -2 6.17 2.03
4 6 -2 4.93 1.37
-4 -6 2 6.05 1.09
4 6 -1 -0.21 0.85
-4 -6 1 0.65 0.69
4 6 -1 0.46 0.79
4 6 -1 -0.49 0.89
-4 -6 1 0.34 0.6
-4 -6 0 7.66 1.19
4 6 0 9.62 1.52
-4 -6 0 9.07 1.34
4 6 0 7.01 1.38
4 6 0 7.96 1.43
-4 -6 0 7.32 1.18
-4 -6 -1 11.89 1.39
-4 -6 -1 11.48 1.52
-4 -6 -1 10.26 1.31
4 6 1 17.43 1.97
-4 -6 -2 7.43 1.31
-4 -6 -2 7.96 1.16
4 6 2 6.95 1.46
-4 -6 -2 8.43 1.25
-4 -6 -3 0.3 0.66
4 6 3 1.2 1.08
-4 -6 -3 1.4 0.75
-4 -6 -3 0.2 0.73
-4 -6 -4 3.91 0.91
4 6 4 2.53 1.08
-4 -6 -4 1 0.75
-4 -6 -4 3.31 0.88
-4 -6 -5 3.2 0.82
4 6 5 2.67 1.2
-4 -6 -5 1.81 0.88
-4 -6 -5 1.73 0.77
-4 -6 -6 3.19 1.13
-4 -7 13 1.47 1.16
-4 -7 13 -0.24 0.9
-4 -7 12 0.46 1
-4 -7 12 0.23 0.88
-4 -7 11 3.43 1
-4 -7 11 4.54 1.32
-4 -7 11 4.1 1.24
-4 -7 10 0.9 0.69
-4 -7 10 2.61 1.03
-4 -7 10 0.41 0.96
-4 -7 10 3.34 1.11
-4 -7 9 5.63 1.19
-4 -7 9 2.85 0.95
-4 -7 9 2.6 0.96
-4 -7 9 5.47 0.99
-4 -7 8 22.46 2.04
-4 -7 8 17.95 1.87
-4 -7 8 20.11 1.57
-4 -7 8 21.78 1.88
-4 -7 7 7.13 1.22
-4 -7 7 8.79 1.36
4 7 -7 10.29 1.95
-4 -7 7 9.93 1.45
-4 -7 7 6.87 0.95
-4 -7 6 2.11 0.89
-4 -7 6 0.78 0.75
-4 -7 6 0.82 0.82
4 7 -6 1.55 1.1
-4 -7 6 1.01 0.81
-4 -7 6 1.78 0.64
4 7 -5 2.31 0.96
-4 -7 5 2.64 0.91
-4 -7 5 1.51 0.68
-4 -7 5 1.23 0.91
4 7 -5 3.81 1.41
-4 -7 5 0.2 0.64
-4 -7 5 1.44 0.61
-4 -7 4 26.81 1.95
-4 -7 4 22.43 2.09
4 7 -4 21.79 2.4
4 7 -4 24.91 2.28
4 7 -3 4.88 1.31
-4 -7 3 8.37 1.26
-4 -7 3 8.66 1.41
4 7 -3 5.87 1.4
4 7 -2 0.23 0.94
-4 -7 2 1.43 0.86
4 7 -2 0.24 0.95
-4 -7 2 -0.19 0.76
4 7 -1 6.81 1.45
-4 -7 1 10.2 1.4
4 7 -1 5.68 1.28
-4 -7 1 8.21 1.27
4 7 0 0.51 1.04
-4 -7 0 -0.17 0.88
-4 -7 0 0.63 0.8
-4 -7 0 0.92 0.78
-4 -7 -1 8.49 1.37
4 7 1 7.52 1.52
-4 -7 -1 9.69 1.46
-4 -7 -1 8.44 1.31
-4 -7 -2 0.33 0.8
4 7 2 0.8 1.02
-4 -7 -2 0.64 0.94
-4 -7 -2 0.52 0.68
-4 -7 -3 5.13 1.23
-4 -7 -3 5.89 1.09
4 7 3 8.03 1.74
-4 -7 -3 4.59 0.97
-4 -7 -4 2.56 0.9
4 7 4 5.48 1.49
-4 -7 -4 2.48 0.84
-4 -7 -4 4.74 1.1
-4 -7 -5 3.03 1.1
-4 -8 12 -0.73 1.04
-4 -8 11 2.75 1.05
-4 -8 11 3.54 1.14
-4 -8 11 4.15 1.37
-4 -8 10 42.32 2.99
-4 -8 10 44.75 3.12
-4 -8 10 40.99 2.47
-4 -8 10 39.48 2.89
-4 -8 9 44.39 3.03
-4 -8 9 38.33 2.88
-4 -8 9 36.51 2.24
-4 -8 9 36.16 2.73
-4 -8 8 0.97 0.85
-4 -8 8 0.67 0.85
4 8 -8 1.28 1.2
-4 -8 8 0.91 0.85
-4 -8 8 0.47 0.63
-4 -8 7 0.91 0.86
4 8 -7 0.31 1.12
-4 -8 7 2.45 0.95
-4 -8 7 1.56 0.85
-4 -8 7 1.73 0.66
-4 -8 6 0.18 0.7
4 8 -6 0.58 1.02
-4 -8 6 -0.44 0.7
-4 -8 6 -0.22 0.77
-4 -8 6 0.38 0.55
-4 -8 5 2.73 0.94
4 8 -5 0.8 0.97
-4 -8 5 2.58 0.97
-4 -8 5 1.12 0.95
-4 -8 5 0.82 0.46
4 8 -4 -0.25 0.95
-4 -8 4 2.68 1.15
4 8 -3 1.56 1.02
4 8 -3 1.38 0.94
-4 -8 3 0.22 0.77
-4 -8 3 1.04 0.85
4 8 -2 1.61 1.07
4 8 -2 0.65 0.85
-4 -8 2 0.62 0.71
4 8 -1 2.5 1.25
-4 -8 1 0.89 0.99
-4 -8 1 3.43 1
4 8 0 7.5 1.67
-4 -8 0 3.82 1.15
-4 -8 0 5.36 1.16
-4 -8 -1 27.48 2.42
-4 -8 -1 27.44 2.25
4 8 1 25.81 2.79
-4 -8 -2 0.23 0.96
-4 -8 -2 0.19 0.76
-4 -8 -3 0.69 0.88
-4 -8 -3 0.56 0.84
-4 -8 -4 -0.36 0.82
-4 -8 -4 0.23 1.01
-4 -9 10 21.86 2.28
4 9 -10 19.32 2.54
-4 -9 10 20.59 1.71
-4 -9 10 20.43 2.16
-4 -9 9 5.33 1.41
4 9 -9 3.82 1.34
-4 -9 9 5.3 1.31
-4 -9 9 5.65 0.99
-4 -9 8 1.25 0.85
4 9 -8 0.9 1.12
-4 -9 8 0.49 0.93
-4 -9 8 1.34 0.59
-4 -9 8 1.45 0.92
-4 -9 7 1.9 1.03
-4 -9 7 -0.2 0.83
4 9 -7 0.28 1.04
-4 -9 7 0.24 0.8
-4 -9 6 2.14 1.01
-4 -9 6 1.17 0.8
4 9 -6 1.53 1.13
-4 -9 6 2.6 0.99
-4 -9 5 0.47 0.89
-4 -9 5 1.53 0.93
4 9 -5 0.94 0.94
-4 -9 4 4.26 1.16
4 9 -4 2.81 1.02
-4 -9 4 2.52 1.08
4 9 -3 0.81 0.91
-4 -9 3 0.67 0.88
-4 -9 2 0.72 0.94
-4 -9 2 0.66 0.86
-4 -9 1 21.66 2.14
-4 -9 0 0.43 0.79
-4 -9 -1 0.21 0.78
-4 -9 -2 6.99 1.39
-4 -9 -3 1.01 0.9
4 10 -9 0.86 1.18
4 10 -8 0.26 1
4 10 -7 -0.24 0.89
4 10 -6 0.43 0.88
4 10 -5 0.2 0.73
-5 9 3 3.29 1.29
-5 9 2 3.39 1.25
-5 9 1 4.12 1.22
-5 9 0 3.75 1.16
-5 9 -1 0.67 0.88
-5 8 2 5.07 1.23
-5 8 2 6.12 1.4
-5 8 2 4.41 1.19
-5 8 1 5.64 1.27
-5 8 1 6.36 1.34
-5 8 0 17.52 1.89
-5 8 -1 0.23 0.82
-5 8 -1 -0.42 0.9
5 -8 1 -0.46 0.84
-5 8 -2 0.23 0.77
-5 8 -2 0.21 0.93
5 -8 2 1.13 0.9
-5 8 -3 1.14 0.81
5 -8 3 1.11 0.87
-5 8 -4 1.58 0.85
-5 8 -4 1.55 0.92
-5 8 -5 -0.9 0.92
-5 8 -5 -0.9 0.8
-5 8 -6 0.94 0.57
-5 8 -6 2.01 0.89
-5 8 -6 2.52 0.98
-5 8 -7 1.55 0.68
-5 8 -7 -0.67 0.87
-5 8 -8 0.15 0.64
-5 8 -8 -0.22 0.81
-5 8 -9 5.44 1.11
-5 8 -10 2.26 0.97
-5 8 -11 0.21 0.85
-5 7 3 3.09 0.96
-5 7 2 0.22 0.8
5 -7 -2 0.44 0.78
5 -7 -1 2.25 0.94
-5 7 0 1.74 0.89
-5 7 0 1.57 0.87
5 -7 0 1.1 0.86
-5 7 -1 22.04 2.07
-5 7 -1 21.05 1.95
5 -7 1 26.26 2.24
-5 7 -2 0.21 0.78
-5 7 -2 0.2 0.8
5 -7 2 -0.21 0.76
-5 7 -3 10.02 1.48
5 -7 3 11.3 1.51
-5 7 -4 1.27 0.83
-5 7 -4 0.85 0.83
5 -7 4 1.82 0.84
-5 7 -5 7.6 1.31
-5 7 -6 2.55 0.74
-5 7 -7 1.88 0.8
-5 7 -8 10.47 1.34
-5 7 -9 20.13 1.88
-5 7 -10 0.81 0.79
-5 7 -11 0.66 0.84
-5 6 5 3.15 0.95
5 -6 -5 1.72 0.81
-5 6 4 0.84 0.65
5 -6 -4 -0.83 0.79
5 -6 -4 0.21 0.87
-5 6 3 2.44 0.74
5 -6 -3 1.59 0.85
5 -6 -3 1.44 0.77
5 -6 -2 9.58 1.35
5 -6 -2 13 2.19
5 -6 -2 10.64 1.27
5 -6 -2 9.94 1.42
5 -6 -1 0.63 0.62
5 -6 -1 -0.32 1.21
5 -6 -1 0.86 0.82
5 -6 0 1.13 0.62
5 -6 0 -0.31 1.19
5 -6 0 0.21 0.7
5 -6 1 26.54 2.02
5 -6 1 25.28 1.98
5 -6 1 21.36 2.46
5 -6 1 25.92 2.19
5 -6 2 0.16 0.67
5 -6 2 0.84 0.73
5 -6 2 0.28 1.09
5 -6 2 0.4 0.68
5 -6 3 6.02 1.05
5 -6 3 9.09 1.17
5 -6 3 5.32 1.45
5 -6 3 8.69 1.28
5 -6 4 6.41 1.06
5 -6 4 8.29 1.19
5 -6 4 7.35 1.51
5 -6 5 6.91 1.07
5 -6 5 7.62 1.48
-5 6 -6 0.69 0.66
-5 6 -7 0.16 0.74
-5 6 -8 7.83 1.28
-5 6 -9 0.98 0.78
-5 6 -10 1.5 0.89
-5 6 -11 0.23 0.9
5 -5 -6 0.59 0.7
-5 5 6 -0.13 0.66
5 -5 -5 8.31 1.31
-5 5 5 6.18 0.95
5 -5 -5 6.7 1.26
-5 5 4 10.22 1.03
5 -5 -4 9.36 1.35
5 -5 -4 8.71 1.33
5 -5 -4 10.34 1.28
5 -5 -4 14.08 1.61
5 -5 -3 1.68 0.78
5 -5 -3 1.9 0.91
5 -5 -3 1.28 0.59
5 -5 -3 1.78 0.73
5 -5 -3 1.18 0.81
5 -5 -2 0.72 0.65
5 -5 -2 0.76 0.71
5 -5 -2 0.36 0.65
5 -5 -2 0.87 0.58
5 -5 -2 -0.34 1.11
5 -5 -2 0.16 0.62
5 -5 -2 -0.2 0.68
5 -5 -1 3.63 0.87
5 -5 -1 3.78 0.88
5 -5 -1 3.13 0.81
5 -5 -1 5.69 1.66
5 -5 -1 3.44 0.85
5 -5 -1 5.5 1.12
5 -5 0 0.19 0.56
5 -5 0 0.66 0.57
5 -5 0 0.66 0.57
5 -5 0 0.15 0.62
5 -5 0 0.32 1.14
5 -5 0 1.32 0.69
5 -5 0 0.4 0.67
5 -5 1 1.68 0.75
5 -5 1 1.76 0.73
5 -5 1 2.71 0.81
5 -5 1 1.26 0.69
5 -5 1 5.2 1.57
5 -5 1 2.15 0.73
5 -5 1 0.99 0.66
5 -5 2 13.77 1.39
5 -5 2 14.95 1.59
5 -5 2 12.97 1.4
5 -5 2 13.72 1.42
5 -5 2 17.28 1.62
5 -5 2 13.69 1.97
5 -5 2 18.28 1.74
5 -5 3 3.58 0.82
5 -5 3 2.81 0.89
5 -5 3 3.44 0.84
5 -5 3 4.16 0.93
5 -5 3 5.5 1.02
5 -5 3 2.23 1.19
5 -5 4 0.72 0.65
5 -5 4 0.76 0.76
5 -5 4 0.43 0.62
5 -5 4 0.17 0.62
5 -5 4 1.34 0.86
5 -5 5 4.56 1.01
5 -5 5 3.23 1
5 -5 5 3.79 0.88
5 -5 5 2.06 0.99
-5 5 -6 15.21 1.51
5 -5 6 12.74 1.61
5 -5 6 15.5 1.59
-5 5 -7 -0.17 0.66
5 -5 7 -0.38 0.72
5 -5 7 -0.32 0.57
-5 5 -8 -0.19 0.7
-5 5 -9 3.14 1.04
-5 5 -10 2.73 1.01
-5 5 -11 2.7 1.27
-5 4 9 -0.82 1.56
5 -4 -8 1.1 0.97
-5 4 8 0.38 1.47
5 -4 -7 1.48 0.76
-5 4 7 1.91 0.73
5 -4 -7 3.57 1
5 -4 -6 -0.19 0.65
-5 4 6 2.2 0.66
5 -4 -6 1.21 0.87
5 -4 -6 1.26 0.7
5 -4 -6 1.69 0.75
5 -4 -5 2.06 0.9
-5 4 5 0.92 0.51
5 -4 -5 1.34 0.77
5 -4 -5 1.26 0.82
5 -4 -5 0.16 0.64
5 -4 -4 12.48 1.48
5 -4 -4 10.97 1.37
5 -4 -4 14.72 1.34
5 -4 -4 11.93 1.36
5 -4 -4 14.09 1.56
5 -4 -3 3.88 0.89
5 -4 -3 2.33 0.8
5 -4 -3 3.2 0.84
5 -4 -3 2.57 0.71
5 -4 -3 3.64 0.86
5 -4 -3 2.05 0.92
5 -4 -2 9.01 1.19
5 -4 -2 6.82 1.1
5 -4 -2 6.52 0.96
5 -4 -2 4.92 1.03
5 -4 -2 8.79 1.93
5 -4 -2 4.23 1.02
5 -4 -1 25.39 1.97
5 -4 -1 25.46 2.05
5 -4 -1 28.7 2.05
5 -4 -1 30.43 2.13
5 -4 -1 28.45 1.93
5 -4 -1 37.09 3.27
5 -4 -1 30.26 2.27
5 -4 0 38.03 2.49
5 -4 0 40.21 2.57
5 -4 0 44.64 2.58
5 -4 0 38.92 2.46
5 -4 0 41.76 2.46
5 -4 0 46.28 3.62
5 -4 0 39.4 2.67
5 -4 1 129.58 5.24
5 -4 1 116.12 5.33
5 -4 1 125.92 5.28
5 -4 1 124.62 5.21
5 -4 1 135.82 5.32
5 -4 1 130.93 6.57
5 -4 1 128.25 5.54
5 -4 2 39.38 2.4
5 -4 2 38.86 2.59
5 -4 2 44.29 2.58
5 -4 2 38.03 2.39
5 -4 2 39.64 2.46
5 -4 2 45.77 3.45
5 -4 2 44.23 2.72
5 -4 3 1.58 0.77
5 -4 3 0.9 0.81
5 -4 3 1.56 0.84
5 -4 3 -0.16 0.57
5 -4 3 1.74 1.08
5 -4 4 0.28 0.56
5 -4 4 0.54 0.66
5 -4 4 0.17 0.6
5 -4 4 0.95 0.65
5 -4 4 0.97 0.67
5 -4 4 -0.28 0.93
5 -4 5 0.79 0.65
5 -4 5 0.55 0.72
5 -4 5 0.51 0.73
5 -4 5 1.28 0.73
5 -4 5 0.27 0.84
5 -4 6 1.47 0.81
5 -4 6 2.54 0.78
-5 4 -7 0.93 0.81
5 -4 7 0.74 0.78
5 -4 7 0.78 0.62
-5 4 -8 -0.2 0.74
5 -4 8 -0.46 0.66
-5 4 -9 1.11 0.93
5 -4 9 -0.45 0.71
-5 4 -10 7.21 1.48
5 -4 10 7.77 1.1
-5 3 11 0.49 1.79
-5 3 10 2.75 1.71
5 -3 -9 1.51 0.84
5 -3 -9 -0.5 0.66
-5 3 9 -0.43 1.47
5 -3 -8 1.66 0.97
5 -3 -8 0.84 0.66
-5 3 8 0.22 0.6
-5 3 8 -0.4 1.41
5 -3 -7 1.01 0.78
5 -3 -7 1.75 0.75
-5 3 7 -0.16 0.52
5 -3 -6 28.28 2.22
5 -3 -6 29.5 2.05
5 -3 -6 28.99 2.14
-5 3 6 27.69 1.31
5 -3 -6 29.99 2.21
5 -3 -5 20.12 1.83
5 -3 -5 18.31 1.64
5 -3 -5 18.81 1.71
5 -3 -5 17.27 1.75
5 -3 -5 22.57 1.86
5 -3 -4 36.92 2.46
5 -3 -4 35.41 2.31
5 -3 -4 33.64 2.36
5 -3 -4 38.79 2.46
5 -3 -4 34.14 2.11
5 -3 -4 36.02 2.44
5 -3 -3 13.75 1.46
5 -3 -3 13.09 1.41
5 -3 -3 15.7 1.51
5 -3 -3 12.18 1.46
5 -3 -3 13.43 1.3
5 -3 -3 14 1.49
5 -3 -2 0.17 0.65
5 -3 -2 0.63 0.52
5 -3 -2 0.54 0.55
5 -3 -2 0.65 0.62
5 -3 -2 0.72 1.03
5 -3 -2 0.89 0.79
5 -3 -1 36.69 2.3
5 -3 -1 36.34 2.29
5 -3 -1 31.65 2.25
5 -3 -1 34.96 2.25
5 -3 -1 33.18 2.15
5 -3 -1 31.19 2.59
5 -3 -1 31.49 3.11
5 -3 -1 37.26 2.48
5 -3 0 109.69 4.73
5 -3 0 113.55 4.8
5 -3 0 110.34 4.89
5 -3 0 106.03 4.64
5 -3 0 112.38 4.71
5 -3 0 102.09 5.39
5 -3 0 111.82 6.11
5 -3 0 109.11 4.9
5 -3 1 8.28 1.16
5 -3 1 7.62 1.24
5 -3 1 6.67 1.1
5 -3 1 7.03 1.08
5 -3 1 4.98 1.56
5 -3 1 5.56 1.02
5 -3 1 7.09 1.6
5 -3 1 5.81 1.07
5 -3 2 12.88 1.33
5 -3 2 15.8 1.49
5 -3 2 13.62 1.48
5 -3 2 18.91 1.53
5 -3 2 16.54 1.5
5 -3 2 11.18 1.74
5 -3 2 11.13 1.87
5 -3 2 14.32 1.55
5 -3 3 0.97 0.69
5 -3 3 0.53 0.77
5 -3 3 0.16 0.68
5 -3 3 0.41 0.71
5 -3 3 0.3 0.89
5 -3 4 0.26 0.57
5 -3 4 0.18 0.7
5 -3 4 0.47 0.63
5 -3 4 -0.33 0.71
5 -3 4 -0.13 0.51
5 -3 4 1.14 0.92
5 -3 5 4.84 0.89
5 -3 5 3.73 0.83
5 -3 5 4.57 0.95
5 -3 5 3.54 0.96
5 -3 5 8.59 1.62
5 -3 6 1.22 0.66
5 -3 6 0.18 0.66
5 -3 7 13.33 1.56
5 -3 7 11.46 1.31
-5 3 -8 0.65 0.93
5 -3 8 0.89 0.57
5 -3 9 19.28 1.64
-5 3 -9 19.33 2.11
-5 3 -10 3.81 1.22
5 -3 10 3.32 0.84
-5 2 11 -0.5 1.78
5 -2 -10 2.14 0.93
5 -2 -10 3.81 0.92
-5 2 10 2.36 1.76
5 -2 -9 6.83 1.31
-5 2 9 6.2 2.1
5 -2 -9 9.81 1.29
5 -2 -8 6 1.22
-5 2 8 4.86 0.7
5 -2 -8 3.94 0.89
-5 2 8 5.38 1.93
5 -2 -7 3.97 0.89
-5 2 7 2.95 0.41
5 -2 -7 1.98 0.84
5 -2 -7 3.29 0.82
5 -2 -6 142.18 5.99
5 -2 -6 140.47 5.67
5 -2 -6 137.8 5.77
5 -2 -6 139.43 5.94
5 -2 -6 148.2 5.86
5 -2 -5 53.02 3.09
5 -2 -5 48.07 2.83
5 -2 -5 54.38 3.01
5 -2 -5 54.54 3.09
5 -2 -5 55.67 2.72
5 -2 -5 52.46 3.32
5 -2 -5 57.43 3.1
5 -2 -4 2.11 0.77
5 -2 -4 3.99 0.92
5 -2 -4 4.38 0.99
5 -2 -4 2.28 1.1
5 -2 -4 3.07 0.75
5 -2 -4 3.75 0.89
5 -2 -4 3.48 0.93
5 -2 -3 14.4 1.52
5 -2 -3 8.19 1.15
5 -2 -3 5.44 1.45
5 -2 -3 8.75 1.12
5 -2 -3 11.35 1.42
5 -2 -2 16.19 1.51
5 -2 -2 15.38 1.48
5 -2 -2 17.19 1.57
5 -2 -2 15.62 1.51
5 -2 -2 17.77 1.51
5 -2 -2 13.07 1.92
5 -2 -2 15.99 2.3
5 -2 -2 18.24 1.61
5 -2 -1 2.04 0.75
5 -2 -1 0.16 0.46
5 -2 -1 0.88 0.61
5 -2 -1 0.28 0.95
5 -2 -1 -0.17 0.56
5 -2 -1 0.15 0.52
5 -2 -1 0.36 1.03
5 -2 -1 1.16 0.71
5 -2 0 18.11 1.59
5 -2 0 17.95 1.59
5 -2 0 16.47 1.59
5 -2 0 19.26 1.65
5 -2 0 21.5 1.74
5 -2 0 18.23 2.21
5 -2 0 20.26 2.52
5 -2 0 20.48 1.74
5 -2 1 57.84 3.13
5 -2 1 65.08 3.3
5 -2 1 61.78 2.66
5 -2 1 61.93 3.32
5 -2 1 62.61 3.15
5 -2 1 63.51 3.25
5 -2 1 56.56 4.03
5 -2 1 69.18 4.53
5 -2 1 66.58 3.37
5 -2 2 15.67 1.45
5 -2 2 11.5 1.05
5 -2 2 15.8 1.58
5 -2 2 16.18 1.41
5 -2 2 13.99 1.44
5 -2 2 14.18 2.04
5 -2 2 11.91 1.35
5 -2 3 0.67 0.59
5 -2 3 1.13 0.57
5 -2 3 0.62 0.67
5 -2 3 1.97 0.8
5 -2 3 1.46 0.68
5 -2 3 0.3 1.04
5 -2 3 0.34 0.71
5 -2 3 1.59 0.74
5 -2 4 1.02 0.77
5 -2 4 1.39 0.74
5 -2 4 2.98 0.66
5 -2 4 1.86 0.73
5 -2 4 1.67 0.71
5 -2 4 1 0.68
5 -2 4 3.5 1.29
5 -2 5 4.64 0.98
5 -2 5 4.54 0.82
5 -2 5 3.98 0.92
5 -2 5 2.26 1.19
5 -2 6 5.68 1.12
5 -2 6 5.07 0.9
5 -2 6 4.36 0.94
5 -2 6 3.8 0.99
5 -2 7 16.85 1.58
5 -2 7 19.65 1.66
5 -2 8 5.47 0.97
5 -2 9 22.59 1.74
-5 1 11 3.09 2.02
5 -1 -10 -0.42 0.85
-5 1 10 -0.97 1.76
5 -1 -10 -0.44 0.57
5 -1 -9 1.21 0.92
-5 1 9 1.39 0.54
5 -1 -9 2.31 0.77
-5 1 9 0.46 1.48
5 -1 -8 19.07 2.16
-5 1 8 18.37 0.97
-5 1 8 18.84 0.99
5 -1 -7 49.61 3.04
5 -1 -7 50.83 2.83
5 -1 -7 49.76 2.89
5 -1 -7 50.09 3.35
5 -1 -6 19.73 1.87
5 -1 -6 23.56 1.86
5 -1 -6 23.21 1.88
5 -1 -6 20.42 1.85
5 -1 -6 20.45 2.2
5 -1 -6 21.25 1.72
5 -1 -5 5.11 1.07
5 -1 -5 9.19 1.53
5 -1 -5 12.71 1.56
5 -1 -5 13.52 1.59
5 -1 -5 6.35 1.11
5 -1 -5 11.2 2.03
5 -1 -5 5.78 0.99
5 -1 -4 -0.44 0.52
5 -1 -4 -0.34 0.62
5 -1 -4 0.5 0.68
5 -1 -4 -0.32 0.68
5 -1 -4 0.28 1.15
5 -1 -4 0.54 0.61
5 -1 -4 -0.17 0.61
5 -1 -3 15.51 1.49
5 -1 -3 15.07 1.51
5 -1 -3 13.6 1.36
5 -1 -3 8.52 1.22
5 -1 -3 12.21 1.97
5 -1 -3 11.93 2.27
5 -1 -3 11.57 1.25
5 -1 -2 -0.16 0.53
5 -1 -2 0.33 0.52
5 -1 -2 -0.32 0.57
5 -1 -2 0.58 0.64
5 -1 -2 -0.61 1.19
5 -1 -2 -0.37 1.15
5 -1 -2 -0.16 0.52
5 -1 -2 -0.43 0.55
5 -1 -1 58.1 3.17
5 -1 -1 62.14 3.23
5 -1 -1 61.36 2.67
5 -1 -1 59.56 3.21
5 -1 -1 63.74 3.19
5 -1 -1 70.21 3.29
5 -1 -1 53.53 4.08
5 -1 -1 62.82 4.48
5 -1 -1 58.47 3.09
5 -1 0 17.58 1.54
5 -1 0 20.57 1.68
5 -1 0 15.71 1.21
5 -1 0 15.15 1.53
5 -1 0 18.27 1.53
5 -1 0 14.34 1.46
5 -1 0 13.79 2.26
5 -1 0 15.6 2.22
5 -1 0 17.04 1.56
5 -1 1 30.72 2.08
5 -1 1 28.44 2.06
5 -1 1 30.75 1.79
5 -1 1 32.61 2.23
5 -1 1 29.71 2.01
5 -1 1 35.83 2.25
5 -1 1 29.9 2.99
5 -1 1 30.65 2.06
5 -1 2 9.38 1.18
5 -1 2 10.74 1.08
5 -1 2 14.44 1.54
5 -1 2 11.26 1.31
5 -1 2 9.24 1.77
5 -1 2 12.22 1.33
5 -1 2 12.02 1.28
5 -1 3 211.89 7.46
5 -1 3 211.52 7.72
5 -1 3 208.43 7.34
5 -1 3 202.96 7.83
5 -1 3 215.06 7.83
5 -1 3 223.16 7.56
5 -1 3 200.39 8.96
5 -1 3 200.45 7.57
5 -1 4 14.85 1.29
5 -1 4 10.89 1.22
5 -1 4 15.84 1.64
5 -1 4 16.98 1.58
5 -1 4 12.85 1.39
5 -1 4 17.37 2.11
5 -1 5 2.32 0.75
5 -1 5 4.23 0.94
5 -1 5 3.7 1.17
5 -1 5 5.48 1.49
5 -1 6 5.67 1.04
5 -1 6 5.51 0.98
5 -1 6 6.73 1.16
5 -1 6 7.85 1.23
5 -1 7 3.38 0.81
5 -1 8 1 0.65
5 -1 9 0.41 0.6
5 0 -11 1.05 0.93
-5 0 11 3.16 1.97
5 0 -10 0.41 0.84
5 0 -10 0.14 0.58
-5 0 10 0.46 0.46
-5 0 10 2.49 1.9
-5 0 9 0.4 0.44
5 0 -9 0.15 0.61
5 0 -9 1.2 0.93
-5 0 9 0.17 0.39
5 0 -9 0.27 1.16
-5 0 9 0.47 1.52
5 0 -8 33.42 2.26
5 0 -8 36.4 2.96
5 0 -8 35.44 2.32
5 0 -7 63.16 3.44
5 0 -7 60.5 3.21
5 0 -7 55.85 3.3
5 0 -7 59.24 3.94
5 0 -7 58.45 3.16
5 0 -6 2.79 0.72
5 0 -6 3.58 0.92
5 0 -6 1.63 0.78
5 0 -6 1.79 0.72
5 0 -6 3.44 1.36
5 0 -6 3.79 0.84
5 0 -6 2.5 0.83
5 0 -5 12.79 1.52
5 0 -5 9.78 1.42
5 0 -5 16.89 1.57
5 0 -5 15.75 1.68
5 0 -5 10.39 1.98
5 0 -5 7.05 1.15
5 0 -5 7.73 1.16
5 0 -4 0.82 0.55
5 0 -4 2.03 0.79
5 0 -4 0.82 0.78
5 0 -4 1.25 0.6
5 0 -4 0.64 1.06
5 0 -4 1.33 0.67
5 0 -3 3.29 0.77
5 0 -3 3.1 0.9
5 0 -3 0.96 0.56
5 0 -3 2.13 0.79
5 0 -3 2.5 0.78
5 0 -3 2.45 0.71
5 0 -3 1.98 1.29
5 0 -3 0.38 1.09
5 0 -3 1.93 0.83
5 0 -2 30.22 2.06
5 0 -2 31.7 2.14
5 0 -2 22.02 1.63
5 0 -2 29.85 2.02
5 0 -2 31.58 2.15
5 0 -2 31.39 2.11
5 0 -2 29.15 3.05
5 0 -2 33.24 3.3
5 0 -2 31.29 1.99
5 0 -1 2.57 0.8
5 0 -1 0.78 0.55
5 0 -1 0.16 0.59
5 0 -1 2.33 0.89
5 0 -1 1.06 0.63
5 0 -1 0.35 1.33
5 0 -1 1.09 1.33
5 0 -1 1.19 0.86
5 0 -1 0.76 0.76
5 0 0 3.02 0.77
5 0 0 2.97 0.7
5 0 0 1.75 0.64
5 0 0 2.77 0.75
5 0 0 2.66 0.79
5 0 0 0.35 1
5 0 0 4.19 1.49
5 0 0 1.58 0.69
5 0 0 2.2 0.77
5 0 1 67.89 3.33
5 0 1 69.69 3.26
5 0 1 70.48 3.51
5 0 1 72.31 3.63
5 0 1 73.06 3.43
5 0 1 72.17 4.77
5 0 1 73.33 3.34
5 0 2 0.13 0.68
5 0 2 0.51 0.65
5 0 2 0.95 0.65
5 0 2 1.28 1.1
5 0 2 0.17 0.71
5 0 2 0.88 0.63
5 0 2 0.51 0.65
5 0 3 220.38 8.15
5 0 3 231.49 7.87
5 0 3 233.01 8.03
5 0 3 218.91 8.23
5 0 3 224.31 7.78
5 0 3 231.27 8.31
5 0 3 230.47 9.65
5 0 3 215.3 7.88
5 0 4 10.65 1.12
5 0 4 11.19 1.27
5 0 4 11.89 1.36
5 0 4 14.31 1.53
5 0 4 13.91 2.03
5 0 4 11.25 1.26
5 0 5 7.15 1.17
5 0 5 8.89 1.26
5 0 5 10.4 1.37
5 0 5 8.33 1.28
5 0 5 9.42 1.75
5 0 6 -0.16 0.7
5 0 6 0.15 0.66
5 0 7 0.59 0.71
5 0 8 4.89 0.9
5 1 -11 1.23 0.97
-5 -1 11 1.62 2.02
5 1 -10 2.21 1.04
-5 -1 10 3.74 0.6
-5 -1 10 5.61 2.45
5 1 -9 24.36 2.63
-5 -1 9 22.36 1.21
-5 -1 9 22.49 1.09
5 1 -8 2.11 0.75
5 1 -8 1.63 0.83
5 1 -8 0.6 1.03
-5 -1 8 0.42 0.9
5 1 -7 0.55 0.69
5 1 -7 1.24 0.65
5 1 -7 0.33 0.7
5 1 -7 0.94 1.08
5 1 -7 0.73 0.67
-5 -1 7 0.6 0.85
5 1 -6 1.25 0.67
5 1 -6 -0.49 0.7
-5 -1 6 0.56 0.79
5 1 -6 0.13 0.57
5 1 -6 0.98 1.4
-5 -1 6 0.19 0.66
5 1 -6 0.16 0.67
5 1 -6 0.53 0.59
-5 -1 6 0.19 0.75
5 1 -5 -0.12 0.48
5 1 -5 -0.17 0.61
5 1 -5 -0.33 0.59
5 1 -5 -0.32 0.68
-5 -1 5 -0.18 0.71
5 1 -5 0.14 0.58
5 1 -5 0.69 1.25
-5 -1 5 0.19 0.75
5 1 -5 1.03 0.79
5 1 -4 9.89 1.05
5 1 -4 12.39 1.33
-5 -1 4 11.99 1.44
5 1 -4 9.27 1.22
5 1 -4 10.84 1.24
5 1 -4 6.35 1.79
-5 -1 4 10.78 1.44
5 1 -4 9.88 1.26
5 1 -3 64.47 3.36
-5 -1 3 66.66 3.66
5 1 -3 66.89 3.39
-5 -1 3 61.93 3.43
5 1 -3 60.28 3.2
5 1 -3 69.12 3.43
5 1 -3 69.07 4.82
5 1 -3 70.1 3.44
5 1 -3 76.92 5.14
5 1 -3 70.29 3.14
5 1 -2 0.45 0.6
5 1 -2 1.37 0.76
5 1 -2 1.09 0.66
5 1 -2 2.75 0.73
5 1 -2 0.64 0.52
5 1 -2 1.81 0.69
5 1 -2 0.37 1.47
5 1 -2 1.51 1.37
-5 -1 2 1.14 0.81
5 1 -2 0.45 0.57
5 1 -1 5.24 0.89
5 1 -1 5.95 0.97
5 1 -1 5.52 0.96
5 1 -1 5.16 0.97
-5 -1 1 6.83 1.07
5 1 -1 3.78 1.76
5 1 -1 4.38 1.47
-5 -1 1 5.7 1.1
5 1 -1 4.8 0.91
5 1 -1 5.98 0.83
5 1 0 0.69 0.62
5 1 0 0.42 0.69
5 1 0 0.16 0.55
5 1 0 1.44 0.83
5 1 0 0.93 0.61
-5 -1 0 1.37 0.68
5 1 0 0.35 1.17
-5 -1 0 0.38 0.77
5 1 0 0.68 0.64
5 1 0 1.08 0.57
5 1 1 207.56 7.61
5 1 1 207.93 7.71
-5 -1 -1 220.08 7.86
5 1 1 213.01 7.87
5 1 1 224.55 7.67
5 1 1 225.2 8.02
5 1 1 220.24 9.54
5 1 1 209.28 7.38
5 1 2 11.07 1.16
5 1 2 10.85 1.22
5 1 2 11.12 1.32
-5 -1 -2 13.44 1.32
5 1 2 11.86 1.39
5 1 2 11.79 1.38
5 1 2 13.36 1.48
5 1 2 13.04 2.05
-5 -1 -2 10.31 1.42
5 1 2 13.45 1.2
5 1 3 4.95 1.01
5 1 3 2.79 0.85
5 1 3 3.78 0.9
-5 -1 -3 6.98 1.03
5 1 3 6.16 1.09
-5 -1 -3 4.85 1.1
5 1 3 5.81 1.64
5 1 4 37.52 2.42
5 1 4 40.89 2.55
5 1 4 41.48 2.54
5 1 4 44.23 3.49
5 1 5 3.41 0.97
5 1 5 2.43 0.76
5 1 6 5.68 0.98
5 1 7 -0.3 0.64
5 1 8 1.03 0.59
5 2 -12 -0.4 0.89
5 2 -11 2.01 1
-5 -2 11 -0.55 1.78
5 2 -10 10.93 1.53
-5 -2 10 10.38 1
-5 -2 9 5.43 0.67
5 2 -9 4.23 1
-5 -2 9 8.73 1.38
-5 -2 9 4.97 1.04
5 2 -8 0.19 0.74
5 2 -8 1.14 0.75
-5 -2 8 0.39 0.68
-5 -2 8 0.74 0.75
-5 -2 8 1.4 0.9
5 2 -7 1.83 0.76
5 2 -7 1.3 0.78
-5 -2 7 1.73 0.86
5 2 -7 2.11 1.5
-5 -2 7 0.94 0.74
5 2 -7 1.93 0.75
-5 -2 7 0.19 0.8
5 2 -6 0.88 0.66
-5 -2 6 0.19 0.63
5 2 -6 -0.37 1.36
-5 -2 6 -0.36 0.73
5 2 -6 -0.17 0.58
-5 -2 6 0.76 0.74
-5 -2 5 33.65 2.25
5 2 -5 28.62 2.1
-5 -2 5 32.83 2.41
-5 -2 5 26.91 2.2
5 2 -5 33.25 2.21
5 2 -5 19.28 2.83
-5 -2 4 5.61 1.16
-5 -2 4 4.64 1
5 2 -4 4.04 0.93
-5 -2 4 4.98 1.05
5 2 -4 4.66 1.87
5 2 -4 5.52 1
5 2 -4 2.73 1.39
5 2 -4 6.73 1.03
5 2 -3 42.7 2.47
-5 -2 3 42.87 2.76
5 2 -3 35.9 2.32
5 2 -3 42.71 3.89
5 2 -3 42.72 2.51
5 2 -3 43.28 3.78
5 2 -3 35.48 2.04
-5 -2 2 58.47 3.05
5 2 -2 52.01 2.87
-5 -2 2 56.69 3.25
5 2 -2 50.52 2.97
5 2 -2 54.28 2.87
5 2 -2 46.02 4.29
5 2 -2 60.27 3.08
5 2 -2 59.52 4.52
5 2 -2 49.82 2.5
5 2 -1 9.74 1.15
-5 -2 1 9.5 1.38
5 2 -1 13.2 1.3
-5 -2 1 8.64 1.21
5 2 -1 9.06 1.28
-5 -2 1 11.28 1.35
5 2 -1 8.6 2.23
5 2 -1 11.85 1.31
5 2 -1 10.13 1.96
5 2 -1 9.58 0.96
5 2 0 -0.09 0.45
5 2 0 0.26 0.54
-5 -2 0 0.58 0.68
-5 -2 0 -0.15 0.63
5 2 0 0.4 0.64
5 2 0 0.17 0.76
5 2 0 0.15 0.61
-5 -2 0 -0.15 0.67
5 2 0 2.76 1.35
-5 -2 -1 11.03 1.24
5 2 1 8.33 1.25
-5 -2 -1 13.33 1.38
5 2 1 10.56 1.99
-5 -2 -2 4.22 1.09
-5 -2 -2 4.12 0.86
5 2 2 2.75 0.94
-5 -2 -2 2.96 0.87
5 2 2 3.14 1.34
-5 -2 -3 9.15 1.1
5 2 3 6.38 1.17
-5 -2 -3 6.41 1.02
5 2 3 6.04 1.59
-5 -2 -3 10.51 1.44
5 2 4 7.76 1.11
5 2 4 10.6 1.44
-5 -2 -4 9.83 1.15
5 2 4 13.16 2.04
-5 -2 -4 7.81 1.32
5 2 5 5.2 0.96
-5 -2 -5 5.73 0.86
-5 -2 -5 7.41 1.26
5 2 6 3.24 0.89
5 2 7 0.94 0.68
5 3 -12 -0.4 0.78
5 3 -11 2.15 0.95
-5 -3 11 1.74 1.01
5 3 -10 0.57 0.8
-5 -3 10 0.21 0.81
-5 -3 10 -0.19 0.74
-5 -3 9 2.67 0.58
-5 -3 9 3.08 1.02
-5 -3 9 2.29 0.91
-5 -3 8 0.77 0.76
5 3 -8 0.36 0.72
-5 -3 8 0.32 0.31
-5 -3 8 0.8 0.71
-5 -3 8 0.19 0.69
-5 -3 7 2.37 0.91
-5 -3 7 4.3 1.06
5 3 -7 5.05 0.98
5 3 -7 3.09 1.62
-5 -3 7 3.71 0.97
-5 -3 7 5.63 1.12
5 3 -7 5.97 1.03
5 3 -6 0.82 0.6
-5 -3 6 0.36 0.71
-5 -3 6 0.59 0.77
5 3 -6 0.67 0.56
-5 -3 6 0.19 0.65
5 3 -6 0.4 1.46
-5 -3 6 0.17 0.72
-5 -3 5 38.67 2.62
5 3 -5 43.59 2.6
-5 -3 5 43.38 2.89
-5 -3 5 45.63 2.83
5 3 -5 43.51 2.6
5 3 -5 43.46 4.1
5 3 -4 2.76 0.87
5 3 -4 7.14 1.09
-5 -3 4 2.38 0.93
-5 -3 4 4.57 1.05
5 3 -4 3.38 1.87
5 3 -3 9.67 1.25
5 3 -3 10.04 1.21
-5 -3 3 6.96 1.3
5 3 -3 5.65 2.13
-5 -3 2 1.62 0.83
-5 -3 2 1.79 0.86
5 3 -2 -0.19 0.84
-5 -3 2 0.86 0.66
5 3 -2 -0.89 1.77
-5 -3 1 20.4 1.72
-5 -3 1 17.5 1.83
5 3 -1 17.83 1.83
-5 -3 1 20.75 1.81
5 3 -1 18.63 2.97
-5 -3 0 20.65 1.75
5 3 0 23.69 2.02
-5 -3 0 21.33 1.79
-5 -3 -1 8.77 1.22
-5 -3 -1 8.6 1.37
5 3 1 9.34 1.37
-5 -3 -1 9.24 1.21
-5 -3 -2 6.71 1.11
-5 -3 -2 4.83 1.15
5 3 2 2.33 0.95
-5 -3 -2 4.77 0.99
-5 -3 -3 22.83 1.72
-5 -3 -3 25.16 2.18
-5 -3 -3 23.45 1.78
-5 -3 -4 -0.2 0.82
-5 -3 -4 -0.25 0.62
-5 -3 -4 -0.13 0.61
-5 -3 -5 2.45 0.71
-5 -3 -5 1.72 0.72
-5 -3 -5 1.79 0.86
-5 -3 -6 1.54 0.61
-5 -3 -6 -0.79 0.89
-5 -4 11 8.04 1.41
-5 -4 10 0.4 0.87
-5 -4 10 0.22 0.77
-5 -4 9 2.22 0.95
-5 -4 9 0.81 0.52
-5 -4 9 0.21 0.79
-5 -4 9 -0.19 0.78
-5 -4 8 3.43 1.03
-5 -4 8 2.49 0.56
-5 -4 8 2.28 0.94
-5 -4 8 2.17 0.83
-5 -4 7 14.42 1.67
-5 -4 7 15.31 1.73
-5 -4 7 12.9 1.52
-5 -4 7 13.88 0.92
-5 -4 6 5.53 1.13
-5 -4 6 4.09 1.1
5 4 -6 6.93 1.99
-5 -4 6 6.92 1.27
-5 -4 6 6.13 1.11
-5 -4 5 1.63 0.8
-5 -4 5 1.03 0.82
5 4 -5 0.89 1.49
-5 -4 5 1.15 0.8
5 4 -5 0.4 1.24
-5 -4 4 1.65 0.81
5 4 -4 1.84 1.71
5 4 -4 3.52 1.53
-5 -4 3 1.93 0.83
-5 -4 3 2.68 0.93
5 4 -3 6.13 2.05
5 4 -3 3.02 1.45
-5 -4 2 0.51 0.7
5 4 -2 -0.21 0.82
-5 -4 2 0.21 0.69
5 4 -2 2.89 1.75
-5 -4 2 1.42 0.83
5 4 -2 0.36 1.2
-5 -4 1 -0.17 0.74
5 4 -1 0.21 0.76
-5 -4 1 0.21 0.78
5 4 -1 -0.48 1.61
-5 -4 1 0.86 0.74
5 4 -1 -0.34 1.11
-5 -4 0 2.44 0.79
5 4 0 1.94 0.88
-5 -4 0 2.52 0.88
5 4 0 0.33 1.09
-5 -4 -1 0.95 0.66
-5 -4 -1 1.04 0.89
5 4 1 0.43 0.8
-5 -4 -1 0.81 0.68
5 4 1 3.73 1.42
-5 -4 -2 2.28 0.81
-5 -4 -2 0.84 0.78
-5 -4 -2 1.56 0.76
5 4 2 1.5 1.17
-5 -4 -3 2.31 0.89
-5 -4 -3 0.84 0.81
-5 -4 -3 4.05 0.91
-5 -4 -4 7.09 1.08
-5 -4 -4 6.41 1.35
-5 -4 -4 5.75 1.02
-5 -4 -5 0.21 0.85
-5 -4 -5 0.81 0.61
-5 -4 -6 1.67 1.03
-5 -4 -7 2.44 0.92
-5 -5 11 0.7 0.95
-5 -5 10 1.27 0.92
-5 -5 10 3.42 1.11
-5 -5 9 0.42 0.85
-5 -5 9 1.57 0.88
-5 -5 9 1.46 0.85
-5 -5 8 1.28 0.87
-5 -5 8 3.02 0.95
-5 -5 8 1.54 0.82
-5 -5 7 2.78 0.98
-5 -5 7 3.14 0.96
-5 -5 7 1.46 0.88
-5 -5 6 8.79 1.37
-5 -5 6 6.13 1.15
5 5 -6 5.58 1.8
-5 -5 6 8.51 1.19
-5 -5 5 0.21 0.78
-5 -5 5 0.2 0.69
5 5 -5 0.39 1.43
-5 -5 4 -0.22 0.76
5 5 -4 3.81 1.62
-5 -5 3 0.37 0.72
-5 -5 3 -0.22 0.77
-5 -5 3 1.16 0.76
5 5 -3 -0.73 1.21
-5 -5 2 1.62 0.87
5 5 -2 1.87 1.07
-5 -5 2 0.87 0.85
-5 -5 2 2.28 0.88
5 5 -2 1.38 1.19
-5 -5 1 4.06 1.02
-5 -5 1 2.97 0.93
5 5 -1 0.33 1.16
-5 -5 0 1.38 0.79
-5 -5 0 0.66 0.8
-5 -5 0 0.36 0.72
5 5 0 0.31 1.07
-5 -5 -1 0.84 0.71
-5 -5 -1 0.22 0.85
-5 -5 -1 1.05 0.73
5 5 1 0.6 1.09
-5 -5 -2 0.98 0.77
-5 -5 -2 1.34 0.93
-5 -5 -2 -0.17 0.71
-5 -5 -3 9.67 1.28
-5 -5 -3 10.34 1.61
-5 -5 -3 13.81 1.46
-5 -5 -4 7.27 1.19
-5 -5 -4 10.58 1.57
-5 -5 -4 8.18 1.24
-5 -5 -5 10.48 1.61
-5 -5 -6 0.22 0.83
-5 -6 11 1.13 0.84
-5 -6 10 0.9 0.94
-5 -6 10 0.72 1
-5 -6 9 1.13 0.86
-5 -6 9 -0.69 0.99
-5 -6 9 1.22 0.8
-5 -6 8 2.78 0.74
-5 -6 8 4.5 1.19
-5 -6 8 2.94 1.02
-5 -6 8 2.43 0.91
-5 -6 7 0.11 0.46
-5 -6 7 -0.23 0.86
-5 -6 7 -0.67 0.85
5 6 -7 0.8 1.42
-5 -6 7 0.15 0.68
-5 -6 6 0.88 0.84
-5 -6 6 0.45 0.8
5 6 -6 -0.39 1.14
-5 -6 6 -0.55 0.68
5 6 -5 0.38 1.19
-5 -6 5 1.59 0.93
5 6 -4 2.91 1.33
-5 -6 4 6.16 1.28
-5 -6 3 0.41 0.79
5 6 -3 0.34 1.07
-5 -6 3 0.23 0.9
-5 -6 2 2.43 0.91
-5 -6 2 0.69 0.96
5 6 -2 2.61 1.36
-5 -6 1 0.4 0.81
5 6 -1 0.31 1.06
-5 -6 0 0.7 0.91
-5 -6 0 -0.19 0.72
5 6 0 -0.29 1.04
-5 -6 -1 2.81 1.19
-5 -6 -1 1.51 0.77
5 6 1 2.88 1.32
-5 -6 -2 31.83 2.68
-5 -6 -2 29.28 2.3
-5 -6 -3 0.72 0.9
-5 -6 -3 1.95 0.99
-5 -6 -4 0.48 0.94
-5 -6 -4 0.68 0.77
-5 -7 10 -0.24 0.98
5 7 -9 0.41 1.52
-5 -7 9 0.96 0.98
-5 -7 9 -0.17 0.74
-5 -7 8 -0.73 0.91
5 7 -8 -0.4 1.45
-5 -7 8 -0.24 0.94
-5 -7 8 0.61 0.8
-5 -7 7 -0.26 0.55
-5 -7 7 0.24 0.84
5 7 -7 -1.17 1.42
-5 -7 7 0.28 0.68
-5 -7 7 0.24 0.91
-5 -7 6 0.48 0.92
-5 -7 6 0.47 0.85
5 7 -6 0.38 1.26
-5 -7 6 0.24 0.61
-5 -7 5 1.93 1.05
5 7 -5 3.22 1.49
-5 -7 4 20.78 2.18
-5 -7 4 20.46 2.09
5 7 -4 22.37 2.74
-5 -7 3 0.73 0.81
-5 -7 3 0.44 0.87
5 7 -3 -0.96 1.31
-5 -7 2 -0.43 0.9
5 7 -2 0.6 1.04
-5 -7 1 0.21 0.79
5 7 -1 0.86 1.01
-5 -7 1 0.24 0.87
-5 -7 0 16.61 1.87
-5 -7 0 14.09 1.85
5 7 0 15.42 2.24
-5 -7 -1 0.41 0.83
-5 -7 -2 4.14 1.11
-5 -7 -3 1.14 0.9
5 8 -10 2.86 1.74
5 8 -9 4.39 1.86
5 8 -8 0.39 1.25
5 8 -7 0.37 1.24
5 8 -6 3.51 1.53
5 8 -5 0.66 1.3
5 8 -4 1.24 1.25
5 8 -3 0.29 1.03
5 8 -2 -0.28 1.06
-5 -8 1 6.62 1.4
-5 -8 0 1.11 0.97
5 9 -10 8.3 2.13
5 9 -9 0.38 1.35
5 9 -8 2.16 1.73
5 9 -7 0.68 1.5
5 9 -6 6.04 1.62
5 9 -5 2.38 1.43
5 9 -4 -0.83 1.25
5 9 -3 0.26 0.96
6 -7 3 15.8 1.76
6 -6 0 2.88 0.97
6 -6 1 1.39 0.85
6 -6 1 0.69 0.76
6 -6 2 -0.19 0.8
6 -6 2 -0.45 0.89
6 -6 3 -0.19 0.81
6 -6 3 -0.22 0.81
6 -5 -4 -0.42 1.37
6 -5 -3 2.94 1.65
6 -5 -2 -0.21 0.75
6 -5 -2 0.41 1.46
6 -5 -2 -0.22 0.87
6 -5 -1 13.64 1.63
6 -5 -1 14.03 2.45
6 -5 -1 15.3 1.77
6 -5 0 4.53 1.06
6 -5 0 4.22 1.79
6 -5 0 5.83 1.25
6 -5 1 3.07 0.95
6 -5 1 4.79 1.71
6 -5 1 4.83 1.19
6 -5 2 -0.19 0.76
6 -5 2 -0.35 1.18
6 -5 2 -0.22 0.71
6 -5 3 0.72 0.75
6 -5 3 2.36 1.26
6 -5 3 1.7 0.89
6 -5 4 -0.32 0.9
6 -5 4 0.42 0.72
6 -5 5 1.89 1.29
6 -5 5 1.04 0.84
6 -4 -4 5.57 1.18
6 -4 -4 4.8 1.09
6 -4 -4 4.79 1.86
6 -4 -3 0.21 0.7
6 -4 -3 -0.86 1.44
6 -4 -3 1.71 0.93
6 -4 -2 6.53 1.22
6 -4 -2 8.9 2.1
6 -4 -2 6.34 1.26
6 -4 -1 13.44 1.59
6 -4 -1 12.77 2.36
6 -4 -1 10.73 1.56
6 -4 0 3.24 0.97
6 -4 0 3.95 1.68
6 -4 0 3.43 0.99
6 -4 1 0.74 0.79
6 -4 1 -0.38 1.14
6 -4 1 -0.21 0.61
6 -4 2 1.07 0.73
6 -4 2 1.46 1.29
6 -4 2 2.28 0.96
6 -4 3 11.89 1.45
6 -4 3 8.38 1.87
6 -4 3 9.82 1.43
6 -4 4 1.01 1.09
6 -4 4 -0.2 0.72
6 -4 5 -0.33 1.02
6 -4 5 -0.4 0.84
6 -3 -5 0.21 0.75
6 -3 -5 1.93 0.98
6 -3 -4 -0.2 0.77
6 -3 -4 -0.21 0.78
6 -3 -4 -0.44 1.33
6 -3 -3 2.63 1
6 -3 -3 3.95 1.76
6 -3 -3 2.8 1.08
6 -3 -2 1.57 0.85
6 -3 -2 0.43 1.4
6 -3 -2 0.39 0.72
6 -3 -1 0.19 0.59
6 -3 -1 -0.42 1.31
6 -3 0 14.59 1.62
6 -3 0 14.94 2.42
6 -3 0 15.82 1.75
6 -3 1 0.54 0.72
6 -3 1 1.41 0.81
6 -3 1 -0.39 1.33
6 -3 1 0.79 0.78
6 -3 2 4.16 0.93
6 -3 2 2.91 0.92
6 -3 2 6.73 1.77
6 -3 2 5.52 1.14
6 -3 3 3.34 0.97
6 -3 3 3.22 1.5
6 -3 3 2.73 0.99
6 -3 4 8.61 1.82
6 -3 4 9.67 1.4
6 -3 5 1.67 1.3
6 -3 5 0.96 0.79
6 -2 -6 1.12 0.79
6 -2 -6 2.16 0.94
6 -2 -5 1.9 0.88
6 -2 -5 -0.42 0.72
6 -2 -4 3.54 1.05
6 -2 -4 3.26 1.01
6 -2 -4 2.55 0.93
6 -2 -4 2.7 1.76
6 -2 -3 10.36 1.37
6 -2 -3 8.32 1.31
6 -2 -3 10.51 1.34
6 -2 -3 8.92 2.25
6 -2 -2 77.02 4.09
6 -2 -2 85.58 5.92
6 -2 -2 82.99 4.1
6 -2 -1 2.43 0.84
6 -2 -1 0.43 1.38
6 -2 -1 2.37 0.9
6 -2 0 6.54 1.15
6 -2 0 9.01 2.06
6 -2 0 5.54 1.11
6 -2 0 6.49 1.21
6 -2 1 -0.35 0.7
6 -2 1 0.39 1.36
6 -2 1 0.17 0.7
6 -2 1 0.55 0.69
6 -2 2 1.02 0.68
6 -2 2 -0.38 1.19
6 -2 2 0.34 0.71
6 -2 2 0.36 0.71
6 -2 3 1.09 1.42
6 -2 3 -0.18 0.65
6 -2 4 2.8 1.31
6 -2 4 4.7 1
6 -2 5 0.68 1.03
6 -1 -7 0.22 0.86
6 -1 -6 10.59 1.38
6 -1 -6 12.39 1.62
6 -1 -5 19.9 1.92
6 -1 -5 21.38 1.84
6 -1 -4 43.58 2.84
6 -1 -4 39.49 2.57
6 -1 -4 40.09 4.07
6 -1 -4 41.79 2.64
6 -1 -3 5.39 1.07
6 -1 -3 5.69 1.16
6 -1 -3 4.85 1.09
6 -1 -3 9.03 2.17
6 -1 -2 38.35 2.64
6 -1 -2 48.43 4.32
6 -1 -2 40.08 2.55
6 -1 -1 -0.19 0.62
6 -1 -1 -0.43 1.29
6 -1 -1 -0.18 0.73
6 -1 -1 0.82 0.72
6 -1 0 1.25 0.79
6 -1 0 4.19 1.65
6 -1 0 1.66 1.47
6 -1 0 1.05 0.79
6 -1 0 1.82 0.76
6 -1 1 0.17 0.68
6 -1 1 1.14 1.46
6 -1 1 -0.4 1.2
6 -1 1 -0.17 0.77
6 -1 1 0.17 0.67
6 -1 2 0.65 0.75
6 -1 2 -0.38 1.32
6 -1 2 -0.17 0.69
6 -1 3 0.74 1.23
6 -1 4 -0.36 1.15
6 -1 5 7.29 1.73
6 0 -7 2.17 1.01
6 0 -6 1.27 0.81
6 0 -5 1.4 0.71
6 0 -5 -0.41 0.73
6 0 -5 -0.36 1.41
6 0 -5 -0.16 0.81
6 0 -5 0.46 1.59
6 0 -4 12.33 1.58
6 0 -4 16.91 1.66
6 0 -4 12.34 2.42
6 0 -4 18.87 2.93
6 0 -4 17.71 1.58
6 0 -3 11.56 1.51
6 0 -3 12.52 1.46
6 0 -3 13.13 2.42
6 0 -3 14.6 2.58
6 0 -3 13.43 1.4
6 0 -2 2.53 0.82
6 0 -2 0.93 0.73
6 0 -2 3.6 1.67
6 0 -2 -0.45 1.35
6 0 -1 3.76 0.96
6 0 -1 1.63 1.63
6 0 -1 0.87 1.26
6 0 -1 3.91 0.93
6 0 -1 1.91 0.76
6 0 0 1.03 0.75
6 0 0 0.41 1.53
6 0 0 -0.42 1.44
6 0 0 2.35 0.85
6 0 0 0.14 0.63
6 0 1 5.31 1.04
6 0 1 2.44 1.63
6 0 1 4.42 1.68
6 0 1 2.56 0.84
6 0 2 1.69 0.72
6 0 2 0.77 1.25
6 0 3 0.37 1.16
6 0 4 1.43 1.23
6 1 -7 0.43 0.73
6 1 -6 0.21 0.75
6 1 -5 13.46 1.59
6 1 -5 12.56 1.47
6 1 -5 10.82 2.37
6 1 -5 12.63 2.62
6 1 -4 7.71 1.09
6 1 -4 7.19 1.24
6 1 -4 5.77 1.99
6 1 -4 6.98 2.17
6 1 -3 0.4 0.64
6 1 -3 0.38 0.72
6 1 -3 0.43 1.51
6 1 -3 -0.46 1.76
6 1 -2 6.02 0.96
6 1 -2 4.54 1.04
6 1 -2 2.17 1.7
6 1 -2 2.69 1.68
6 1 -1 9.83 1.32
6 1 -1 14.52 2.86
6 1 -1 6.92 2.06
6 1 -1 11.69 1.4
6 1 0 44.82 2.68
6 1 0 41.24 2.58
6 1 0 39.56 4.1
6 1 0 41.34 3.96
6 1 1 44.05 2.61
6 1 1 40.55 3.84
6 1 2 2.29 1.39
6 1 3 0.37 1.15
6 2 -7 0.21 0.69
-6 -2 7 0.23 0.74
-6 -2 7 0.23 0.98
6 2 -6 1.81 0.81
-6 -2 6 1.56 0.93
6 2 -6 1.42 1.48
-6 -2 6 0.47 0.89
6 2 -5 0.78 0.76
-6 -2 5 1.53 0.87
6 2 -5 2.83 1.67
-6 -2 5 0.23 0.96
6 2 -4 5.24 1.12
6 2 -4 5.62 1.96
-6 -2 4 6.6 1.3
6 2 -3 0.9 0.69
-6 -2 3 0.21 0.77
6 2 -3 -0.46 1.54
-6 -2 3 -0.24 0.88
6 2 -2 11.96 1.41
-6 -2 2 8.62 1.34
6 2 -2 4.01 1.72
-6 -2 2 9.23 1.5
-6 -2 1 24.33 2.29
6 2 -1 28.86 2.09
-6 -2 1 27.88 2.23
6 2 -1 27.97 3.34
-6 -2 0 34.24 2.43
6 2 0 29.37 3.41
-6 -2 -1 42.43 3.06
-6 -2 -1 41.1 2.65
6 2 1 36.58 3.68
-6 -2 -2 13.58 1.48
-6 -2 -2 13.09 1.76
6 2 2 6.45 2
-6 -2 -3 0.32 0.61
-6 -2 -3 0.23 0.83
-6 -3 9 0.46 0.91
-6 -3 8 0.47 0.81
6 3 -7 2.02 0.87
-6 -3 7 3.23 1.13
-6 -3 7 5.92 1.37
6 3 -6 0.2 0.69
-6 -3 6 -0.68 0.82
-6 -3 6 0.24 0.89
-6 -3 5 8.91 1.5
6 3 -5 7.97 1.38
-6 -3 4 0.48 0.88
-6 -3 3 0.24 0.84
-6 -3 3 0.63 0.77
-6 -3 2 27.42 2.47
6 3 -2 21.53 2.16
-6 -3 2 32.75 2.44
-6 -3 1 65.71 3.9
-6 -3 1 56.52 3.39
-6 -3 0 1.72 1.02
-6 -3 -1 0.55 0.74
-6 -3 -1 -0.24 0.97
-6 -3 -2 19.33 1.76
6 3 2 20.03 2.8
-6 -3 -2 16.16 2.01
-6 -3 -3 5.01 1.05
-6 -3 -3 7 1.46
-6 -3 -4 0.79 0.71
-6 -3 -4 -0.24 0.92
-6 -4 8 1.22 0.98
-6 -4 7 7.64 1.53
6 4 -7 10.54 2.6
-6 -4 6 0.25 1.04
-6 -4 6 1.85 0.98
6 4 -6 -0.48 1.82
-6 -4 5 0.25 0.84
6 4 -5 0.94 1.57
-6 -4 4 2.28 1.18
-6 -4 4 3.56 1.12
6 4 -4 -0.46 1.49
-6 -4 3 6.84 1.43
-6 -4 3 7.18 1.35
6 4 -3 3.56 1.75
-6 -4 2 5.08 1.36
-6 -4 2 5.93 1.27
6 4 -2 3.42 1.86
-6 -4 1 4.12 1.14
6 4 -1 0.41 1.42
-6 -4 0 2.52 1.12
-6 -4 0 2.19 0.97
6 4 0 2.34 1.7
-6 -4 -1 15.15 2
-6 -4 -1 14.93 1.66
6 4 1 7.47 1.98
-6 -4 -3 0.18 0.78
6 5 -7 0.48 1.59
6 5 -6 0.47 1.47
6 5 -5 -0.46 1.76
-6 -5 4 -0.23 0.83
6 5 -4 2.67 1.96
-6 -5 3 12.74 1.75
6 5 -3 10.71 2.37
-6 -5 2 1.33 0.85
6 5 -2 1.23 1.72
-6 -5 1 12.55 1.7
6 5 -1 7.46 2.04
-6 -5 0 1.26 0.9
-6 -5 -1 3.28 1.1
-6 -5 -2 -0.2 0.78
-6 -5 -3 0.56 0.84
6 6 -6 1.37 1.48
6 6 -5 1.77 1.53
6 6 -4 2.55 2.04
6 6 -3 -0.41 1.6
6 6 -2 3.1 1.62
-6 -6 0 0.44 0.91
-6 -6 -1 0.85 0.91
-6 -6 -2 3.53 1.09
7 -2 -1 -0.2 0.83
7 -2 0 0.98 0.91
7 -1 -3 5.87 1.2
7 -1 -2 -0.18 0.81
7 -1 0 0.2 0.78
7 0 0 1.77 0.84
