#------------------------------------------------------------------------------
#$Date: 2020-02-14 02:29:05 +0200 (Fri, 14 Feb 2020) $
#$Revision: 248140 $
#$URL: file:///home/coder/svn-repositories/cod/cif/4/03/79/4037916.cif $
#------------------------------------------------------------------------------
#
# This file is available in the Crystallography Open Database (COD),
# http://www.crystallography.net/
#
# All data on this site have been placed in the public domain by the
# contributors.
#
data_4037916
loop_
_publ_author_name
'Nikahd, Maryam'
'Mikusek, Jiri'
'Yu, Li-Juan'
'Coote, Michelle L.'
'Banwell, Martin G.'
'Ma, Chenxi'
'Gardiner, Michael G.'
_publ_section_title
;
 Exploiting Chitin as a Source of Biologically Fixed Nitrogen: Formation
 and Full Characterization of Small-Molecule Hetero- and Carbocyclic
 Pyrolysis Products.
;
_journal_name_full               'The Journal of organic chemistry'
_journal_paper_doi               10.1021/acs.joc.9b03438
_journal_year                    2020
_chemical_formula_moiety         'C8 H9 N O3'
_chemical_formula_sum            'C8 H9 N O3'
_chemical_formula_weight         167.16
_space_group_crystal_system      triclinic
_space_group_IT_number           2
_space_group_name_Hall           '-P 1'
_space_group_name_H-M_alt        'P -1'
_atom_sites_solution_hydrogens   geom
_audit_creation_date             2018-09-02
_audit_creation_method
;
Olex2 1.2
(compiled 2017.08.10 svn.r3458 for OlexSys, GUI svn.r5381)
;
_cell_angle_alpha                89.422(18)
_cell_angle_beta                 86.974(13)
_cell_angle_gamma                80.489(18)
_cell_formula_units_Z            2
_cell_length_a                   4.6446(8)
_cell_length_b                   8.456(2)
_cell_length_c                   10.7100(16)
_cell_measurement_reflns_used    896
_cell_measurement_temperature    150.00(10)
_cell_measurement_theta_max      72.1900
_cell_measurement_theta_min      5.2410
_cell_volume                     414.27(14)
_computing_cell_refinement       'CrysAlisPro 1.171.39.46 (Rigaku OD, 2018)'
_computing_data_collection       'CrysAlisPro 1.171.39.46 (Rigaku OD, 2018)'
_computing_data_reduction        'CrysAlisPro 1.171.39.46 (Rigaku OD, 2018)'
_computing_molecular_graphics    'Olex2 (Dolomanov et al., 2009)'
_computing_publication_material  'Olex2 (Dolomanov et al., 2009)'
_computing_structure_refinement  'ShelXL (Sheldrick, 2015)'
_computing_structure_solution    'SHELXT 2014/5 (Sheldrick, 2014)'
_diffrn_ambient_environment      N~2~
_diffrn_ambient_temperature      150.00(10)
_diffrn_detector                 'CCD plate'
_diffrn_detector_area_resol_mean 8.1297
_diffrn_detector_type            EosS2
_diffrn_measured_fraction_theta_full 0.994
_diffrn_measured_fraction_theta_max 0.981
_diffrn_measurement_details
;
List of Runs (angles in degrees, time in seconds):

  # Type    Start    End  Width  t~exp~   \w     \q     \k     \f   Frames
--------------------------------------------------------------------------
  1  \w    -69.00 -21.00   1.00    1.00    --  -37.35 -57.00  30.00   48
  2  \w     22.00 106.00   1.00    1.00    --   37.35  38.00 -60.00   84
  3  \w     56.00  81.00   1.00    1.00    --   37.35  57.00 -60.00   25
  4  \w     57.00  89.00   1.00    1.00    --   37.35-125.00  60.00   32
  5  \w     60.00 105.00   1.00    1.00    --   37.35  57.00  30.00   45
  6  \w     32.00  91.00   1.00    1.00    --   37.35-125.00-180.00   59
  7  \w     16.00  59.00   1.00    1.00    --   37.35 -99.00 -60.00   43
  8  \w    -17.00  14.00   1.00    1.00    --   37.35 -38.00 -60.00   31
  9  \w     28.00 102.00   1.00    1.00    --   37.35  57.00 150.00   74
 10  \w     44.00  86.00   1.00    1.00    --   37.35  57.00-150.00   42
 11  \w      6.00  54.00   1.00    1.00    --   37.35 -99.00   0.00   48
 12  \w     68.00  95.00   1.00    2.20    --  111.00 -12.00 -90.00   27
 13  \w     56.00 113.00   1.00    2.20    --  111.00-111.00  90.00   57
 14  \w     44.00 103.00   1.00    2.20    --  111.00 -50.00 -30.00   59
 15  \w     52.00  94.00   1.00    2.20    --  111.00 -64.00 120.00   42
 16  \w     90.00 153.00   1.00    2.20    --  111.00  77.00-120.00   63
 17  \w     75.00 107.00   1.00    2.20    --  111.00-111.00-120.00   32
 18  \w     42.00  69.00   1.00    2.20    --  111.00-111.00 -90.00   27
 19  \w    139.00 169.00   1.00    2.20    --  111.00  64.00-180.00   30
 20  \w    131.00 173.00   1.00    2.20    --  111.00  50.00   0.00   42
 21  \w     93.00 126.00   1.00    2.20    --  111.00  64.00-180.00   33
 22  \w     93.00 172.00   1.00    2.20    --  111.00  25.00 150.00   79
 23  \w     82.00 109.00   1.00    2.20    --  111.00 -92.00 -30.00   27
 24  \w     46.00 123.00   1.00    2.20    --  111.00 -64.00-180.00   77
 25  \w     78.00 110.00   1.00    2.20    --  111.00-111.00-180.00   32
 26  \w     54.00 105.00   1.00    2.20    --  111.00-111.00   0.00   51
 27  \w     45.00  70.00   1.00    2.20    --  111.00-111.00-180.00   25
 28  \w    119.00 144.00   1.00    2.20    --  111.00 -12.00 -90.00   25
 29  \w     77.00 119.00   1.00    2.20    --  111.00 -50.00   0.00   42
 30  \w     54.00 126.00   1.00    2.20    --  111.00 -25.00-150.00   72
 31  \w     88.00 113.00   1.00    2.20    --  111.00-111.00 -90.00   25
 32  \w     58.00 115.00   1.00    2.20    --  111.00 -64.00 -90.00   57
 33  \w     68.00 120.00   1.00    2.20    --  111.00 -59.00  67.56   52
;
_diffrn_measurement_device       'four-circle diffractometer'
_diffrn_measurement_device_type  'SuperNova, Dual, Cu at home/near, EosS2'
_diffrn_measurement_method       '\w scans'
_diffrn_orient_matrix_type
'CrysAlisPro convention (1999,Acta A55,543-557)'
_diffrn_orient_matrix_UB_11      -0.1352111000
_diffrn_orient_matrix_UB_12      0.0883073000
_diffrn_orient_matrix_UB_13      0.1196452000
_diffrn_orient_matrix_UB_21      -0.3001060000
_diffrn_orient_matrix_UB_22      0.0321191000
_diffrn_orient_matrix_UB_23      -0.0585309000
_diffrn_orient_matrix_UB_31      -0.0711638000
_diffrn_orient_matrix_UB_32      -0.1590430000
_diffrn_orient_matrix_UB_33      0.0548440000
_diffrn_radiation_monochromator  mirror
_diffrn_radiation_probe          x-ray
_diffrn_radiation_type           CuK\a
_diffrn_radiation_wavelength     1.54184
_diffrn_reflns_av_R_equivalents  0.0349
_diffrn_reflns_av_unetI/netI     0.0501
_diffrn_reflns_Laue_measured_fraction_full 0.994
_diffrn_reflns_Laue_measured_fraction_max 0.981
_diffrn_reflns_limit_h_max       5
_diffrn_reflns_limit_h_min       -5
_diffrn_reflns_limit_k_max       9
_diffrn_reflns_limit_k_min       -10
_diffrn_reflns_limit_l_max       13
_diffrn_reflns_limit_l_min       -9
_diffrn_reflns_number            2846
_diffrn_reflns_point_group_measured_fraction_full 0.994
_diffrn_reflns_point_group_measured_fraction_max 0.981
_diffrn_reflns_theta_full        67.684
_diffrn_reflns_theta_max         73.483
_diffrn_reflns_theta_min         4.134
_diffrn_source                   'micro-focus sealed X-ray tube'
_diffrn_source_type              'SuperNova (Cu) X-ray Source'
_exptl_absorpt_coefficient_mu    0.874
_exptl_absorpt_correction_T_max  1.00000
_exptl_absorpt_correction_T_min  0.50105
_exptl_absorpt_correction_type   multi-scan
_exptl_absorpt_process_details
;
CrysAlisPro 1.171.39.46 (Rigaku Oxford Diffraction, 2018)
Empirical absorption correction using spherical harmonics,
 implemented in SCALE3 ABSPACK scaling algorithm.
;
_exptl_crystal_colour            colourless
_exptl_crystal_colour_primary    colourless
_exptl_crystal_density_diffrn    1.340
_exptl_crystal_description       block
_exptl_crystal_F_000             176
_exptl_crystal_size_max          0.311
_exptl_crystal_size_mid          0.103
_exptl_crystal_size_min          0.06
_refine_diff_density_max         0.550
_refine_diff_density_min         -0.357
_refine_diff_density_rms         0.099
_refine_ls_extinction_method     none
_refine_ls_goodness_of_fit_ref   1.061
_refine_ls_hydrogen_treatment    constr
_refine_ls_matrix_type           full
_refine_ls_number_parameters     111
_refine_ls_number_reflns         1635
_refine_ls_number_restraints     0
_refine_ls_restrained_S_all      1.061
_refine_ls_R_factor_all          0.1030
_refine_ls_R_factor_gt           0.0872
_refine_ls_shift/su_max          0.000
_refine_ls_shift/su_mean         0.000
_refine_ls_structure_factor_coef Fsqd
_refine_ls_weighting_details
'w=1/[\s^2^(Fo^2^)+(0.1717P)^2^+0.0267P] where P=(Fo^2^+2Fc^2^)/3'
_refine_ls_weighting_scheme      calc
_refine_ls_wR_factor_gt          0.2302
_refine_ls_wR_factor_ref         0.2656
_reflns_Friedel_coverage         0.000
_reflns_number_gt                1222
_reflns_number_total             1635
_reflns_threshold_expression     'I > 2\s(I)'
_cod_data_source_file            jo9b03438_si_002.cif
_cod_data_source_block           MN115A3_scale
_cod_database_code               4037916
_shelx_shelxl_version_number     2018/1
_chemical_oxdiff_formula         C8H9N1O3
_shelx_space_group_comment
;
The symmetry employed for this shelxl refinement is uniquely defined
by the following loop, which should always be used as a source of
symmetry information in preference to the above space-group names.
They are only intended as comments.
;
_shelx_estimated_absorpt_t_max   0.949
_shelx_estimated_absorpt_t_min   0.773
_reflns_odcompleteness_completeness 96.86
_reflns_odcompleteness_iscentric 1
_reflns_odcompleteness_theta     74.33
_olex2_refinement_description
;
1. Fixed Uiso
 At 1.2 times of:
  All C(H) groups, All N(H) groups
 At 1.5 times of:
  All C(H,H,H) groups
2.a Aromatic/amide H refined with riding coordinates:
 C3(H3), C5(H5), N1(H1)
2.b Idealised Me refined as rotating group:
 C6(H6A,H6B,H6C), C8(H8A,H8B,H8C)
;
_shelx_res_file
;
TITL kma_mn114a3_scale_a.res in P-1
    kma_mn115a3_scale.res
    created by SHELXL-2018/1 at 23:14:32 on 02-Sep-2018
REM Old TITL KMA_MN114A3_scale in P-1
REM SHELXT solution in P-1
REM R1 0.158, Rweak 0.006, Alpha 0.044, Orientation as input
REM Formula found by SHELXT: C8 N O3
CELL 1.54184 4.6446 8.4559 10.71 89.422 86.974 80.489
ZERR 2 0.0008 0.0021 0.0016 0.018 0.013 0.018
LATT 1
SFAC C H N O
UNIT 16 18 2 6

L.S. 10
PLAN  20
SIZE 0.06 0.103 0.311
BOND $H
list 4
fmap 2
acta
REM <olex2.extras>
REM <HklSrc "%.\\KMA_MN115A3_scale.hkl">
REM </olex2.extras>

WGHT    0.171700    0.026700
FVAR       0.80920
C1    1    0.348881    0.404842    0.657559    11.00000    0.03652    0.03312 =
         0.04977    0.00187   -0.00126   -0.00029
C2    1    0.484545    0.281211    0.566070    11.00000    0.03208    0.03336 =
         0.05164   -0.00132    0.00059   -0.00115
C3    1    0.710352    0.191834    0.620179    11.00000    0.03676    0.03713 =
         0.05107    0.00007   -0.00356    0.00132
AFIX  43
H3    2    0.835136    0.105461    0.583578    11.00000   -1.20000
AFIX   0
C4    1    0.727032    0.251810    0.743897    11.00000    0.03603    0.03416 =
         0.05242    0.00304   -0.00242    0.00063
C5    1    0.912110    0.204355    0.832274    11.00000    0.04531    0.04574 =
         0.05282    0.00338   -0.00518   -0.00040
AFIX  43
H5    2    1.055604    0.115873    0.814502    11.00000   -1.20000
AFIX   0
C6    1    0.910982    0.279809    0.957218    11.00000    0.05603    0.07073 =
         0.05259    0.00308   -0.00691   -0.00160
AFIX 137
H6A   2    1.079304    0.331570    0.961227    11.00000   -1.50000
H6B   2    0.916172    0.198860    1.020931    11.00000   -1.50000
H6C   2    0.736744    0.357688    0.970124    11.00000   -1.50000
AFIX   0
C7    1    0.501117    0.185737    0.352677    11.00000    0.03382    0.03457 =
         0.05302   -0.00530   -0.00008   -0.00103
C8    1    0.349199    0.208556    0.233597    11.00000    0.04198    0.04755 =
         0.04980   -0.00369   -0.00092    0.00375
AFIX 137
H8A   2    0.379878    0.308384    0.196029    11.00000   -1.50000
H8B   2    0.143639    0.209978    0.250190    11.00000   -1.50000
H8C   2    0.425902    0.122053    0.177616    11.00000   -1.50000
AFIX   0
N1    3    0.369629    0.279216    0.450814    11.00000    0.03180    0.03759 =
         0.04830   -0.00265   -0.00080    0.00325
AFIX  43
H1    2    0.205592    0.340040    0.439227    11.00000   -1.20000
AFIX   0
O1    4    0.498567    0.383218    0.763390    11.00000    0.04189    0.03697 =
         0.04929   -0.00162   -0.00236    0.00096
O2    4    0.140425    0.510789    0.646908    11.00000    0.03940    0.03981 =
         0.05538    0.00027   -0.00211    0.00849
O3    4    0.731968    0.092993    0.364226    11.00000    0.03981    0.04476 =
         0.06031   -0.00728   -0.00410    0.00834
HKLF 4




REM  kma_mn114a3_scale_a.res in P-1
REM R1 =  0.0872 for    1222 Fo > 4sig(Fo)  and  0.1030 for all    1635 data
REM    111 parameters refined using      0 restraints

END

WGHT      0.1717      0.0267

REM Highest difference peak  0.550,  deepest hole -0.357,  1-sigma level  0.099
Q1    1   0.4540  0.4576  0.8259  11.00000  0.05    0.55
Q2    1   0.1586  0.5425  0.7239  11.00000  0.05    0.42
Q3    1   0.3873  0.1720  0.2479  11.00000  0.05    0.41
Q4    1   0.6976  0.0589  0.2928  11.00000  0.05    0.41
Q5    1   0.7823  0.0962  0.4374  11.00000  0.05    0.40
Q6    1   0.7509  0.0085  0.3175  11.00000  0.05    0.39
Q7    1   0.3618  0.1228  0.2126  11.00000  0.05    0.39
Q8    1   0.6187  0.2847  0.6628  11.00000  0.05    0.37
Q9    1   0.7159  0.2995  0.7646  11.00000  0.05    0.36
Q10   1   0.7375  0.2981  0.8098  11.00000  0.05    0.36
Q11   1   0.8574  0.2732  0.8687  11.00000  0.05    0.36
Q12   1   0.8951  0.3429  1.0460  11.00000  0.05    0.30
Q13   1   0.8650  0.3857  0.9720  11.00000  0.05    0.29
Q14   1   0.0100  0.5860  0.6346  11.00000  0.05    0.29
Q15   1   0.5009  0.2129  0.4575  11.00000  0.05    0.29
Q16   1   0.9388  0.3051  1.0527  11.00000  0.05    0.28
Q17   1   1.2964  0.0231  0.8300  11.00000  0.05    0.28
Q18   1   0.4412  0.1851  0.4272  11.00000  0.05    0.27
Q19   1   0.3315  0.2419  0.3394  11.00000  0.05    0.26
Q20   1   0.1621  0.3189  0.2269  11.00000  0.05    0.26
;
_shelx_res_checksum              64447
_shelx_hkl_file
;
   0   0  -1 1014.84    7.47
   0   0  -1 1011.34    7.68
   0   0   2  364.12    5.57
   0   0   2  372.25    6.33
   0   0  -2  382.26    6.90
   0   0  -2  371.13    6.64
   0   0   3  399.83    8.00
   0   0  -3  391.27    9.09
   0   0   3  385.26    6.97
   0   0  -3  395.02    8.46
   0   0   4   43.77    3.14
   0   0   4   42.16    2.70
   0   0   4   33.15    2.01
   0   0  -4   44.05    3.38
   0   0   4   45.38    3.40
   0   0   5  335.78   10.00
   0   0   5  345.86   10.77
   0   0   6   -0.98    0.70
   0   0   7  105.73    7.97
   0   0   8   22.86    4.20
   0   0   9   17.78    2.35
   0   0   9   13.29    2.19
   0   0  10  148.19    6.79
   0   0  11    7.58    1.50
   0   0  12   -0.19    0.21
   0   0  13    0.02    0.15
   0  -1  12    0.35    0.27
   0  -1  11    5.46    1.09
   0  -1  11    6.60    1.36
   0  -1  10    8.63    1.70
   0  -1  10    6.80    1.36
   0  -1   9   17.83    2.40
   0  -1   8   45.19    6.37
   0  -1   8   36.47    5.28
   0  -1   7   13.34    2.82
   0  -1   7   16.88    3.58
   0  -1   6    9.19    2.17
   0  -1   6    9.43    1.90
   0  -1   5    7.21    1.40
   0   1  -5    3.63    1.12
   0   1  -5    4.79    1.33
   0  -1   5    6.23    1.50
   0   1  -4   59.72    4.31
   0  -1   4   58.43    3.83
   0  -1   4   59.10    3.65
   0   1  -4   57.36    3.66
   0  -1   3   18.85    1.87
   0  -1   3   16.67    1.84
   0   1  -3   18.59    1.76
   0   1  -2   54.28    2.61
   0   1  -1  127.62    3.11
   0  -1   1  134.42    3.79
   0   1   0  149.59    2.66
   0  -1   0  157.53    2.76
   0  -1   0  154.57    3.27
   0   1   1  207.37    3.54
   0   1   1  210.34    4.23
   0   1   2  218.13    5.34
   0   1   2  214.14    2.36
   0   1   3   34.32    2.65
   0   1   3   33.05    1.55
   0   1   4   29.27    2.72
   0   1   4   29.34    1.96
   0   1   4   33.82    3.05
   0   1   5   56.01    4.46
   0   1   5   54.28    4.19
   0   1   6   15.57    2.82
   0   1   6   14.92    2.43
   0   1   7   -0.11    0.36
   0   1   8   54.12    6.38
   0   1   9   21.51    2.95
   0   1   9   25.35    2.77
   0   1  10    9.74    1.94
   0   1  10   10.25    1.77
   0   1  11   -0.03    0.31
   0   1  11   -0.47    0.40
   0   1  12    2.13    0.75
   0   1  12    1.87    0.61
   0   1  13    7.43    0.97
   0  -2  13    0.40    0.27
   0  -2  12    0.07    0.25
   0  -2  11    6.82    1.28
   0  -2  11    4.91    1.08
   0  -2  10   38.30    3.47
   0  -2  10   42.97    3.47
   0  -2   9   27.61    3.16
   0  -2   9   29.49    3.04
   0  -2   8    7.78    2.52
   0  -2   8    7.46    2.39
   0  -2   7   64.54    6.24
   0  -2   7   69.05    6.23
   0  -2   7   74.86    7.13
   0  -2   6  294.17   12.84
   0  -2   6  292.24   11.24
   0   2  -6  261.42   11.43
   0  -2   6  281.55   11.58
   0  -2   5   17.54    2.49
   0  -2   5   20.11    2.61
   0   2  -5   11.81    2.00
   0   2  -5   12.38    2.26
   0  -2   5   20.94    3.08
   0   2  -4   28.52    2.65
   0  -2   4   21.52    2.47
   0  -2   4   22.94    2.63
   0  -2   4   20.14    2.63
   0  -2   3   44.96    3.54
   0  -2   3   41.53    2.94
   0   2  -3   45.35    2.96
   0  -2   3   42.17    3.21
   0  -2   2  254.74    5.83
   0   2  -2  269.05    6.43
   0   2  -2  252.41    4.28
   0  -2   2  276.70    7.22
   0  -2   2  259.73    7.32
   0  -2   1  616.63   10.73
   0  -2   1  618.29    6.58
   0  -2   1  639.92    9.75
   0  -2   1  632.74   10.21
   0  -2   0 1429.76   14.66
   0   2   0 1458.26   11.36
   0  -2   0 1442.44   12.30
   0   2   1  715.20    9.80
   0  -2  -1  707.58    7.03
   0   2   1  700.51    7.48
   0  -2  -1  703.25    9.41
   0   2   2   25.68    1.92
   0   2   2   25.52    2.26
   0   2   3  450.70   10.24
   0   2   3  431.68   10.28
   0   2   4  467.77   11.94
   0   2   4  489.86   12.30
   0   2   5   55.38    4.61
   0   2   5   60.89    5.04
   0   2   6    0.14    0.34
   0   2   6    0.36    0.53
   0   2   7   11.50    2.76
   0   2   7    9.82    2.43
   0   2   8   50.46    6.11
   0   2   9   28.44    2.93
   0   2   9   26.09    3.25
   0   2  10   -0.22    0.32
   0   2  10    0.02    0.41
   0   2  11   10.41    1.83
   0   2  11    8.67    1.48
   0   2  12    0.52    0.39
   0   2  12   -0.01    0.22
   0  -3  12    1.25    0.39
   0  -3  12    1.40    0.65
   0  -3  11    1.86    0.69
   0  -3  10    9.03    1.62
   0  -3   9    4.79    1.31
   0  -3   8    3.32    1.18
   0  -3   7   26.37    4.17
   0  -3   7   29.96    4.56
   0   3  -6   11.46    2.73
   0  -3   6   20.70    3.34
   0  -3   6   23.20    3.71
   0  -3   6   24.20    3.58
   0  -3   5   52.78    4.81
   0  -3   5   62.38    5.07
   0  -3   5   62.09    5.61
   0  -3   5   59.23    4.91
   0  -3   4  341.09   11.86
   0   3  -4  293.97    9.44
   0  -3   4  290.83   10.56
   0  -3   4  311.95    9.90
   0  -3   4  320.36   10.41
   0   3  -3   -0.19    0.30
   0  -3   3    0.06    0.41
   0  -3   3   -0.08    0.43
   0  -3   3    0.17    0.28
   0  -3   3   -0.40    0.53
   0  -3   2   92.62    5.47
   0  -3   2   89.78    5.47
   0  -3   2   79.12    4.74
   0   3  -2   77.43    4.39
   0  -3   2   80.05    4.78
   0  -3   1   79.11    4.35
   0  -3   1   82.77    4.56
   0  -3   1   87.43    5.07
   0   3  -1   68.72    2.72
   0   3   0  155.37    4.78
   0  -3   0  163.21    6.42
   0  -3   0  174.97    5.85
   0  -3  -1   20.55    1.73
   0   3   1   22.28    2.09
   0  -3  -1   18.09    2.07
   0   3   2  289.63    8.43
   0  -3  -2  285.64    7.61
   0   3   3  457.88   11.19
   0   3   3  446.88   11.66
   0   3   4  138.98    7.26
   0   3   4  151.77    7.53
   0   3   5    8.06    2.02
   0   3   5   10.14    2.31
   0   3   6  103.49    7.54
   0   3   6  111.10    7.98
   0   3   6  106.34    8.23
   0   3   7   39.50    5.14
   0   3   8  127.60    6.75
   0   3   8  124.06    5.95
   0   3   9    3.77    1.21
   0   3   9    3.62    1.16
   0   3  10   16.76    2.47
   0   3  10   14.55    2.06
   0   3  11    7.68    1.46
   0   3  11    7.39    1.30
   0   3  12    2.90    0.77
   0   3  12    2.83    0.69
   0  -4  12   -0.14    0.15
   0  -4  12    0.31    0.29
   0  -4  11    3.97    0.85
   0  -4  11    2.67    0.96
   0  -4  10   31.34    2.83
   0  -4   9    0.32    0.50
   0  -4   8    4.21    1.34
   0  -4   7   10.24    2.27
   0  -4   7   11.22    2.00
   0  -4   6    2.54    1.58
   0  -4   6    1.24    0.82
   0  -4   5   36.85    4.47
   0  -4   5   41.82    4.83
   0  -4   4    7.42    2.21
   0  -4   4   12.14    2.45
   0  -4   4   10.50    2.29
   0  -4   3    2.73    1.12
   0  -4   3    3.02    1.14
   0   4  -2    2.37    0.95
   0  -4   2    4.85    1.35
   0  -4   2    5.62    1.47
   0  -4   1    0.70    0.29
   0  -4   1   -0.22    0.50
   0  -4   0   75.03    5.10
   0  -4   0   78.34    5.37
   0   4   1   59.35    3.98
   0  -4  -1   59.86    4.53
   0  -4  -2   96.72    5.69
   0   4   2  105.18    5.81
   0   4   3   23.55    2.99
   0  -4  -3   19.62    2.63
   0   4   4   27.62    3.48
   0   4   5   21.86    3.37
   0   4   6    0.65    0.66
   0   4   6    1.84    1.15
   0   4   7    7.48    1.36
   0   4   7   12.63    2.17
   0   4   8    5.52    1.34
   0   4   8    8.32    1.76
   0   4   9    0.05    0.53
   0   4   9    0.34    0.25
   0   4  10    1.33    0.66
   0   4  10    1.49    0.64
   0   4  11    0.55    0.34
   0   4  11   -0.11    0.21
   0   4  12    0.45    0.28
   0  -5  11    0.09    0.28
   0  -5  11   -0.23    0.26
   0  -5  10    0.49    0.45
   0  -5  10    0.02    0.29
   0  -5   9    0.31    0.28
   0  -5   9    0.00    0.37
   0  -5   9    0.11    0.40
   0  -5   8    1.57    0.78
   0  -5   8    2.26    0.94
   0  -5   7    7.83    1.75
   0  -5   7   10.48    2.21
   0  -5   7    6.65    1.85
   0  -5   6    1.21    0.71
   0  -5   6    1.11    0.69
   0  -5   6    1.05    0.76
   0  -5   6    1.51    1.00
   0  -5   5    0.23    0.50
   0  -5   4    1.13    0.99
   0  -5   3    1.68    0.94
   0  -5   2  250.84   12.18
   0  -5   2  229.36   10.75
   0  -5   1   35.53    4.55
   0   5  -1   36.63    4.71
   0  -5   1   29.99    3.82
   0  -5   0    0.50    0.66
   0  -5  -1   59.70    5.33
   0  -5  -2  121.66    7.54
   0   5   3    9.50    2.15
   0  -5  -3   15.64    2.69
   0   5   4   18.72    3.11
   0   5   5    3.37    1.75
   0   5   5    2.36    1.17
   0  -5  -6    1.38    0.75
   0   5   7    3.18    1.02
   0  -5  -7    3.09    1.14
   0   5   8   34.90    3.40
   0   5   9    0.11    0.37
   0   5  10    0.64    0.52
   0   5  10    0.31    0.36
   0   5  11    9.22    1.21
   0  -6  10    9.58    1.15
   0  -6  10    7.44    1.14
   0  -6   9    4.77    1.13
   0  -6   9    6.13    1.18
   0  -6   8    2.67    0.93
   0  -6   8    1.58    0.68
   0  -6   8   -0.24    0.79
   0  -6   7    1.19    0.53
   0  -6   7    0.93    0.88
   0  -6   7    1.71    1.02
   0  -6   6    6.04    1.71
   0  -6   6    4.88    1.50
   0  -6   6    4.41    1.24
   0  -6   5   14.43    2.26
   0  -6   5   14.68    2.64
   0  -6   5   13.52    2.21
   0  -6   4    3.09    1.09
   0  -6   4    3.20    1.53
   0  -6   4    3.41    0.95
   0  -6   3    0.87    0.92
   0  -6   1   15.35    3.25
   0   6   0   26.18    4.70
   0  -6   0   25.31    4.16
   0  -6  -1   30.20    4.46
   0   6   1   43.83    6.28
   0   6   2    0.97    1.29
   0   6   3    0.42    0.68
   0  -6  -4   37.75    2.98
   0  -6  -5    8.00    1.73
   0  -6  -5    8.94    1.56
   0  -6  -6   10.87    1.93
   0  -6  -6   14.08    2.04
   0  -6  -7    1.82    0.78
   0  -6  -8    0.65    0.31
   0   6   9   -0.15    0.19
   0   6  10    0.23    0.31
   0   6  10    0.04    0.15
   0  -7   8   32.65    2.47
   0  -7   7    8.15    1.74
   0  -7   6    1.79    0.85
   0  -7   5    1.18    0.89
   0  -7   5    0.44    0.65
   0  -7   5   -0.31    0.41
   0  -7   4   29.28    3.76
   0  -7   4   24.87    2.77
   0  -7   4   25.49    2.88
   0  -7   4   23.51    2.89
   0  -7   3   46.33    4.06
   0  -7   3   59.84    6.02
   0  -7   3   52.91    3.84
   0  -7   3   50.72    3.93
   0  -7   2   33.78    3.53
   0  -7   2   41.74    4.88
   0  -7   2   38.88    3.22
   0  -7   2   39.76    3.44
   0  -7   1   27.37    2.76
   0  -7   1   28.17    3.89
   0  -7   1   24.01    2.80
   0  -7   1   19.73    2.70
   0  -7   0   14.48    2.02
   0  -7   0   12.03    2.01
   0  -7  -1   44.69    4.00
   0  -7  -1   35.08    3.17
   0  -7  -1   36.90    3.15
   0  -7  -2   62.12    4.19
   0  -7  -2   65.47    4.96
   0  -7  -2   69.67    4.33
   0  -7  -3    5.82    1.56
   0  -7  -3    6.06    1.32
   0  -7  -3    4.40    1.02
   0  -7  -4    1.34    0.82
   0  -7  -4    0.51    0.58
   0  -7  -4   -0.36    0.25
   0  -7  -5   27.37    2.72
   0  -7  -5   25.86    2.98
   0  -7  -6    4.31    1.26
   0  -7  -6    5.24    1.22
   0  -7  -7   28.59    2.59
   0  -7  -7   22.40    2.47
   0  -7  -8    3.22    0.78
   0   7   9    0.48    0.28
   0  -8   8    3.70    0.68
   0  -8   7   -1.35    0.66
   0  -8   6   20.54    2.74
   0  -8   5    0.71    0.75
   0  -8   4    1.54    0.75
   0  -8   4    1.51    0.76
   0  -8   3   -0.25    0.51
   0  -8   3    0.16    0.39
   0  -8   2    1.75    0.89
   0  -8   2    2.37    0.89
   0  -8   2    2.75    1.08
   0  -8   1   17.71    2.53
   0  -8   1   12.90    2.68
   0  -8   1   18.79    2.31
   0  -8   1   13.50    2.21
   0  -8   0    1.94    0.93
   0  -8   0    1.97    0.88
   0  -8  -1   22.99    2.45
   0  -8  -1   31.41    3.29
   0  -8  -2   40.97    3.26
   0  -8  -2   39.99    3.64
   0  -8  -3    1.77    0.79
   0  -8  -3    0.33    0.61
   0  -8  -4   45.64    3.40
   0  -8  -4   41.79    3.65
   0  -8  -5    4.38    1.05
   0  -8  -5    1.82    0.83
   0  -8  -6    2.17    0.68
   0  -8  -6    1.03    0.33
   0  -8  -7    0.16    0.41
   0   8   8    1.14    0.42
   0  -9   6    0.13    0.28
   0  -9   6   -1.13    0.48
   0  -9   5    3.96    0.76
   0  -9   5    6.58    1.38
   0  -9   4   -0.15    0.41
   0  -9   3    1.54    0.91
   0  -9   3    1.96    0.80
   0  -9   2    1.68    1.04
   0  -9   2    1.73    0.64
   0  -9   1    3.38    0.93
   0  -9   1    5.04    1.05
   0  -9   1    4.16    1.10
   0  -9   0   30.84    2.87
   0  -9   0   29.31    2.77
   0  -9   0   30.44    2.64
   0  -9  -1   19.89    2.39
   0  -9  -1   17.04    1.95
   0  -9  -1   16.57    2.02
   0  -9  -2    0.68    0.40
   0  -9  -2    0.68    0.48
   0  -9  -2    1.19    0.64
   0  -9  -2    1.35    0.49
   0  -9  -3   18.03    2.13
   0  -9  -3   14.81    1.71
   0  -9  -4    0.79    0.59
   0  -9  -4    0.02    0.35
   0  -9  -5    4.03    0.80
   0  -9  -5    4.69    0.97
   0   9   6    0.32    0.28
   0  -9  -6    0.13    0.26
   0 -10   3    0.15    0.19
   0 -10   2    0.21    0.29
   0 -10   1    4.24    0.91
   0 -10   1    5.09    0.86
   0 -10   0   33.12    2.56
   0 -10   0   27.85    1.88
   0 -10  -1    6.98    1.15
   0 -10  -2    7.40    1.14
   0 -10  -2    5.67    1.02
   0 -10  -3   12.29    1.38
   1  -9  -5    1.82    0.57
   1  -9  -4    1.18    0.51
   1  -9  -3    4.68    1.03
   1  -9  -2    3.81    0.96
   1  -9  -1   16.32    2.09
   1  -9   0    8.24    1.46
   1  -9   1    1.43    0.70
   1  -9   2    2.63    0.82
   1  -9   2    1.99    0.76
   1  -9   3    1.36    0.61
   1  -9   3    1.55    0.57
   1  -9   4    5.93    0.97
   1  -9   4    5.76    1.13
  -1   8   7    2.85    0.68
  -1   8   6    1.94    0.68
  -1   8   5    7.00    1.28
   1  -8  -5    8.11    1.29
   1  -8  -4   25.15    2.44
  -1   8   4   22.96    2.39
   1  -8  -3   22.99    2.50
   1  -8  -2   16.66    2.19
   1  -8  -1  108.47    6.06
   1  -8  -1  107.73    5.76
   1  -8   0   28.10    3.12
   1  -8   0   25.51    3.41
   1  -8   0   25.30    3.09
   1  -8   1    4.35    1.16
   1  -8   1    3.91    1.43
   1  -8   2    0.07    0.61
   1  -8   2   -0.51    0.46
   1  -8   3   42.56    3.78
   1  -8   3   41.03    4.48
   1  -8   4   67.31    4.44
   1  -8   4   61.86    4.68
   1  -8   5    7.54    1.39
   1  -8   5    6.17    1.40
   1  -8   6   25.64    2.27
   1  -8   6   22.05    2.26
   1  -8   7    3.26    0.66
   1  -8   7    1.59    0.32
  -1   7   9    0.69    0.31
  -1   7   8    1.12    0.51
  -1   7   7    1.26    0.59
  -1   7   6    5.23    1.21
   1  -7  -5    0.48    0.56
   1  -7  -5   -0.16    0.50
   1  -7  -4   36.97    2.98
   1  -7  -4   34.14    3.09
   1  -7  -3    1.86    0.69
   1  -7  -3    1.42    0.62
   1  -7  -2   44.70    3.43
   1  -7  -2   50.20    4.02
   1  -7  -1   92.30    5.60
   1  -7  -1   76.07    4.51
   1  -7  -1   80.47    6.05
   1  -7   0    8.53    1.85
   1  -7   0    7.03    1.84
   1  -7   1    0.48    0.45
   1  -7   1    1.31    0.83
   1  -7   1    0.39    0.64
   1  -7   2    1.10    0.48
   1  -7   2    1.00    0.87
   1  -7   2    0.46    0.60
   1  -7   3    1.47    0.80
   1  -7   3    0.45    0.46
   1  -7   3    1.64    1.01
   1  -7   4   23.88    2.93
   1  -7   4   22.85    3.76
   1  -7   5    0.19    0.42
   1  -7   5    1.61    0.97
   1  -7   5    0.60    1.18
   1  -7   6   15.58    2.15
   1  -7   6   13.92    2.18
   1  -7   7    2.67    0.75
   1  -7   8   17.87    1.81
   1  -7   8   15.42    1.41
  -1   6  10    4.09    0.74
  -1   6   9    0.86    0.48
  -1   6   8    0.95    0.49
  -1   6   7    2.14    0.80
   1  -6  -6    1.37    0.65
   1  -6  -5   58.06    3.64
   1  -6  -4    0.03    0.46
   1  -6  -4    0.29    0.45
   1  -6  -3   56.39    3.67
   1  -6  -3   50.25    3.93
   1  -6  -2   57.62    4.29
   1  -6  -2   53.06    3.63
  -1   6   1    0.63    0.93
   1  -6  -1    2.90    0.95
   1  -6   0   23.00    2.79
   1  -6   1    2.70    0.99
  -1   6  -1    2.51    1.43
   1  -6   2    0.28    0.63
   1  -6   2    0.15    0.63
  -1   6  -2    0.35    0.46
   1  -6   2    0.18    0.50
   1  -6   3    1.45    0.72
   1  -6   3    1.27    0.61
   1  -6   3    1.16    0.86
   1  -6   4    2.88    1.26
   1  -6   4    3.08    1.23
   1  -6   4    4.50    1.35
   1  -6   5   62.46    4.92
   1  -6   5   50.37    4.61
   1  -6   5   67.01    6.33
   1  -6   6    1.53    0.53
   1  -6   6    2.61    1.07
   1  -6   7   10.75    1.93
   1  -6   8   -0.03    0.38
   1  -6   9   10.13    1.43
   1  -6  10    0.53    0.26
  -1   5  10    0.89    0.37
  -1   5  10    0.22    0.25
  -1   5  10    0.95    0.47
  -1   5   9    5.17    1.26
  -1   5   9    4.68    0.99
  -1   5   8   39.62    3.32
  -1   5   8   40.84    3.60
   1  -5  -7    7.74    1.49
  -1   5   7    9.86    1.79
   1  -5  -6   29.99    2.88
   1  -5  -5    4.20    1.07
  -1   5   4    1.62    1.39
  -1   5   3  121.56    9.33
  -1   5   2   77.60    7.11
  -1   5   1   33.69    4.38
  -1   5   0  101.32    7.20
  -1   5  -1   65.17    5.84
  -1   5  -1   38.49    4.93
  -1   5  -2  162.06    9.98
   1  -5   2  146.18    8.16
  -1   5  -3   97.10    7.83
   1  -5   3   79.93    6.59
   1  -5   4   -0.01    0.37
   1  -5   5    3.60    1.24
   1  -5   5    2.80    1.23
   1  -5   6   29.49    3.87
   1  -5   6   34.44    3.80
   1  -5   7  137.32    7.50
   1  -5   8   31.64    3.41
   1  -5   9    7.45    1.53
   1  -5  10   12.64    1.66
   1  -5  11   -0.06    0.17
  -1   4  11    0.18    0.34
  -1   4  10    0.97    0.61
  -1   4  10    0.14    0.25
  -1   4   9    0.34    0.45
  -1   4   9    2.33    0.79
  -1   4   8    1.31    0.87
  -1   4   8    0.95    0.61
  -1   4   7    8.31    1.63
  -1   4   7    7.64    1.52
  -1   4   6    9.22    1.62
  -1   4   5   42.46    5.18
  -1   4   4   -0.54    0.63
  -1   4   3    0.64    0.66
  -1   4   2   38.66    4.44
  -1   4   1   62.68    5.27
  -1   4   0   42.65    4.12
   1  -4   1   22.89    2.86
  -1   4  -1   16.41    2.57
   1  -4   2    3.94    1.27
  -1   4  -2    3.17    1.17
  -1   4  -3    1.84    1.07
   1  -4   3    2.46    1.17
   1  -4   4   23.64    3.66
  -1   4  -4   23.16    3.79
   1  -4   5   13.11    2.88
  -1   4  -5    6.27    2.07
   1  -4   6    2.99    1.44
   1  -4   6    2.10    0.85
   1  -4   7    3.46    1.24
   1  -4   8    4.89    1.46
   1  -4   9   23.68    3.07
   1  -4  10    0.69    0.50
   1  -4  11    0.10    0.30
   1  -4  11   -0.40    0.46
  -1   3  12    7.01    0.99
  -1   3  11    1.49    0.61
  -1   3  10    0.25    0.49
  -1   3  10    0.51    0.55
  -1   3   9   33.75    3.20
  -1   3   9   35.16    3.30
  -1   3   9   29.82    3.09
  -1   3   8    2.57    1.06
  -1   3   8    3.53    1.15
  -1   3   8    3.95    1.16
  -1   3   7    1.11    0.59
  -1   3   7    1.35    0.64
  -1   3   6    5.92    1.89
  -1   3   5   23.26    3.44
   1  -3  -4   20.71    3.54
  -1   3   4   15.27    2.79
   1  -3  -3  199.60    9.58
  -1   3   3  207.45    9.66
  -1   3   2   85.50    5.80
   1  -3  -2  103.83    6.52
  -1   3   1    1.91    0.93
  -1   3   0  110.45    5.72
  -1   3  -1  719.10   14.57
  -1   3  -2   14.43    2.05
  -1   3  -2    3.70    1.37
  -1   3  -3   11.07    2.40
   1  -3   4   -0.35    0.73
  -1   3  -4   -0.34    0.50
  -1   3  -5    3.06    1.44
   1  -3   5    3.37    1.48
   1  -3   6   24.65    3.94
  -1   3  -6   14.57    3.47
  -1   3  -6   20.38    3.71
   1  -3   7    2.95    1.53
   1  -3   7    3.78    1.20
  -1   3  -7    2.70    1.72
   1  -3   8   -0.37    0.57
   1  -3   8    0.04    0.42
   1  -3   9    2.16    0.99
   1  -3   9    1.86    0.79
   1  -3  10    1.03    0.51
   1  -3  10    1.87    0.67
   1  -3  11    2.84    0.72
   1  -3  11    3.79    0.87
   1  -3  12    2.90    0.62
   1  -3  12    2.24    0.70
  -1   2  12    0.14    0.19
  -1   2  11    1.48    0.61
  -1   2  11    2.36    0.75
  -1   2  10    4.81    1.23
  -1   2  10    2.58    0.87
  -1   2   9    2.89    0.96
  -1   2   9    2.55    0.91
  -1   2   8    3.20    1.04
  -1   2   8    3.39    1.07
   1  -2  -7   -0.93    0.71
   1  -2  -6   32.95    5.04
  -1   2   5    7.21    1.79
   1  -2  -5    8.69    2.42
  -1   2   4   19.24    2.63
   1  -2  -4   19.27    3.22
   1  -2  -3  201.51    9.06
  -1   2   3  190.28    7.86
  -1   2   2   79.97    4.88
   1  -2  -2   84.32    5.36
   1  -2  -1  228.20    5.80
   1  -2  -1  234.17    8.62
  -1   2   1  249.58    8.10
  -1   2   0   12.12    1.65
  -1   2  -1    0.23    0.27
  -1   2  -2  101.47    5.71
   1  -2   2   85.69    3.57
  -1   2  -3   33.13    3.42
   1  -2   3   24.48    2.64
  -1   2  -4  125.47    7.15
   1  -2   4  139.26    7.44
  -1   2  -5    0.80    0.83
   1  -2   5    0.17    0.31
   1  -2   5   -0.29    0.71
   1  -2   6   26.21    3.66
  -1   2  -6   22.56    3.80
   1  -2   6   21.62    3.48
  -1   2  -6   25.96    3.84
   1  -2   7    6.50    2.08
  -1   2  -7    6.41    2.29
   1  -2   7    8.59    2.23
  -1   2  -7    8.95    2.66
   1  -2   7    8.25    2.30
   1  -2   8    0.59    0.51
   1  -2   8   -0.40    0.51
   1  -2   9   58.72    4.56
   1  -2   9   64.86    4.42
   1  -2  10   10.15    1.76
   1  -2  11    0.59    0.51
   1  -2  11    0.30    0.40
   1  -2  12    1.16    0.47
   1  -2  12    0.94    0.39
  -1   1  12    1.73    0.58
  -1   1  12    2.45    0.70
  -1   1  11    7.51    1.33
  -1   1  11    6.54    1.37
  -1   1  10    1.29    0.80
  -1   1  10    1.44    0.73
  -1   1   9   76.51    4.90
  -1   1   9   81.10    4.66
  -1   1   8   32.26    2.97
  -1   1   8   31.13    3.10
  -1   1   7   85.10    7.52
  -1   1   5   73.95    4.83
  -1   1   4  300.95    9.02
  -1   1   3  252.76    7.90
  -1   1   2    0.48    0.42
   1  -1  -2    0.54    0.59
  -1   1   1   91.26    2.50
   1  -1   0   70.53    3.31
   1  -1   1  192.62    4.98
   1  -1   2   22.18    1.69
   1  -1   2   29.81    1.65
   1  -1   3  620.39    8.96
  -1   1  -3  642.78   13.42
  -1   1  -4  134.73    6.82
   1  -1   4  130.36    4.85
  -1   1  -5   39.47    4.32
  -1   1  -5   41.43    4.18
   1  -1   6   80.10    5.98
  -1   1  -6   64.34    5.94
  -1   1  -6   64.12    6.10
   1  -1   7   13.18    2.76
   1  -1   7   11.22    2.34
  -1   1  -7   13.85    3.12
  -1   1  -7   13.39    3.16
   1  -1   8    9.79    2.62
  -1   1  -8    7.72    2.78
   1  -1   8   12.38    3.20
   1  -1   9   24.16    2.86
   1  -1   9   26.40    2.96
   1  -1  10    1.77    0.71
   1  -1  11    1.80    0.63
   1  -1  11    2.61    1.02
   1  -1  12    0.14    0.22
  -1   0  12    6.77    1.14
  -1   0  11    0.29    0.22
  -1   0  11    0.12    0.19
  -1   0  10    6.89    1.47
  -1   0  10    8.64    1.54
  -1   0   9   46.93    3.56
  -1   0   9   40.24    3.47
  -1   0   9   42.98    3.12
  -1   0   8    4.00    1.78
  -1   0   7   -0.55    0.98
  -1   0   6   18.91    3.34
  -1   0   5  312.25   12.08
  -1   0   4  427.15   12.85
  -1   0   3   20.76    2.55
   1   0  -2  935.16   15.16
  -1   0   2  920.10   14.30
   1   0  -1 1098.58   14.87
  -1   0   1 1105.59   11.83
   1   0   0  671.76   10.88
  -1   0   0  668.39    9.39
   1   0   0  665.37   10.54
  -1   0  -1  417.19    8.27
   1   0   2   53.54    2.83
  -1   0  -3  146.56    6.65
   1   0   3  130.88    4.90
  -1   0  -3  142.53    6.21
  -1   0  -4   65.95    4.75
   1   0   4   75.65    4.28
  -1   0  -4   74.09    5.17
  -1   0  -5  623.20   16.92
   1   0   5  641.54   14.46
  -1   0  -5  649.12   17.40
   1   0   6  195.73    8.73
   1   0   6  194.70    8.91
  -1   0  -6  183.13   10.40
   1   0   7   14.39    2.97
  -1   0  -7   14.74    3.27
   1   0   8   44.73    5.77
   1   0   9   51.79    3.98
   1   0  10    7.22    1.52
   1   0  11    0.72    0.52
   1   0  12    1.60    0.61
   1   0  13    3.53    0.66
  -1  -1  12   -0.05    0.31
  -1  -1  11    2.29    0.74
  -1  -1  11    1.97    0.71
  -1  -1  10    6.38    1.25
  -1  -1  10    5.73    1.29
  -1  -1   9   27.48    2.73
  -1  -1   9   28.98    2.67
  -1  -1   7   18.69    3.67
  -1  -1   6   17.09    3.19
  -1  -1   5   18.95    3.09
  -1  -1   4    6.61    1.63
  -1  -1   3   46.47    3.95
   1   1  -3   77.35    4.71
  -1  -1   2  408.53   10.32
  -1  -1   2  402.20    7.78
   1   1  -2  391.45    9.95
   1   1  -1  126.66    5.20
  -1  -1   1  123.15    5.28
  -1  -1   1  131.56    4.13
  -1  -1   1  121.30    2.30
  -1  -1   0  191.32    4.27
   1   1   0  187.35    5.17
  -1  -1  -1   27.34    2.11
  -1  -1  -1   24.97    1.54
   1   1   2   19.25    2.06
  -1  -1  -2   17.99    2.24
  -1  -1  -2   18.59    2.12
  -1  -1  -3  102.19    5.59
   1   1   3  100.03    4.87
  -1  -1  -4    0.19    0.39
   1   1   4    1.03    0.69
  -1  -1  -5   33.27    4.28
   1   1   5   24.92    3.05
   1   1   6    4.73    1.55
   1   1   7   40.60    4.88
   1   1   7   36.05    4.33
   1   1   8   32.11    4.88
   1   1   9   13.88    2.50
   1   1   9   14.00    2.12
   1   1  10    6.20    1.62
   1   1  10    7.84    1.57
   1   1  11    1.01    0.69
   1   1  11    1.78    0.68
   1   1  12    0.94    0.48
   1   1  12    1.03    0.51
   1   1  13    0.09    0.13
  -1  -2  12    1.75    0.54
  -1  -2  12    1.42    0.57
  -1  -2  11   67.33    3.72
  -1  -2  10   11.66    1.71
  -1  -2   9    8.68    1.55
  -1  -2   8   55.73    3.80
  -1  -2   7    0.39    0.72
  -1  -2   6   63.11    6.27
  -1  -2   5   35.98    4.29
   1   2  -4  156.23    7.09
  -1  -2   4  143.04    7.74
   1   2  -3  245.37    8.53
  -1  -2   3  250.75    9.70
   1   2  -2  574.82   12.76
  -1  -2   2  565.20   12.10
  -1  -2   2  539.21   14.17
  -1  -2   1 9999.00   46.78
  -1  -2   0  890.67   12.91
  -1  -2   0  907.75   12.78
  -1  -2  -1  202.45    6.15
   1   2   2  360.40    9.65
   1   2   3   45.99    3.75
   1   2   4  485.28   13.19
   1   2   5    9.39    2.03
   1   2   6   92.80    7.01
   1   2   7   32.16    4.30
   1   2   7   38.59    4.79
   1   2   8   14.32    3.06
   1   2   8   20.88    2.85
   1   2   9  179.90    8.94
   1   2   9  174.29    7.48
   1   2  10   10.86    2.28
   1   2  10   11.42    1.90
   1   2  11    0.20    0.45
   1   2  11    0.51    0.48
   1   2  12    0.48    0.44
   1   2  12    0.37    0.26
   1   2  13    0.38    0.23
  -1  -3  12    2.09    0.73
  -1  -3  12    2.74    0.60
  -1  -3  11    3.28    0.91
  -1  -3  11    3.15    1.17
  -1  -3  10    4.75    1.09
  -1  -3   9   25.61    2.66
  -1  -3   8   11.48    1.85
  -1  -3   7    1.04    0.76
  -1  -3   6    6.16    2.04
  -1  -3   5    3.69    1.40
  -1  -3   4    0.50    0.60
   1   3  -3   18.62    2.55
  -1  -3   3   23.49    3.51
  -1  -3   3   22.99    3.00
  -1  -3   2   46.37    4.18
  -1  -3   2   43.16    3.99
  -1  -3   1   74.90    4.97
  -1  -3   1   75.15    4.80
  -1  -3   0   51.43    3.90
  -1  -3   0   53.27    3.78
   1   3   1  313.27    9.32
   1   3   2  103.40    5.63
   1   3   3   38.89    3.74
   1   3   4   70.94    5.50
   1   3   5    1.69    1.03
   1   3   6    2.44    1.30
   1   3   6    2.63    1.18
   1   3   7   50.94    5.98
   1   3   7   45.55    5.27
   1   3   8   35.25    3.28
   1   3   8   40.30    3.95
   1   3   9   17.42    2.82
   1   3   9   16.38    2.40
   1   3  10   -0.20    0.71
   1   3  10    0.04    0.49
   1   3  11    4.77    1.24
   1   3  11    3.81    0.89
   1   3  12   14.86    1.68
   1   3  12   11.30    1.29
  -1  -4  12    1.84    0.56
  -1  -4  12    2.10    0.44
  -1  -4  11   19.33    1.79
  -1  -4  11   21.29    2.58
  -1  -4  10    6.87    1.21
  -1  -4  10    6.95    1.72
  -1  -4   9    6.59    1.39
  -1  -4   9    6.60    1.72
  -1  -4   8   15.13    2.12
  -1  -4   8   14.60    2.04
  -1  -4   7   70.72    4.32
  -1  -4   7   64.35    4.20
  -1  -4   6    1.81    1.09
  -1  -4   6    4.69    2.04
  -1  -4   5    1.21    1.04
  -1  -4   5    0.67    0.95
  -1  -4   4   11.98    2.74
  -1  -4   4    9.77    2.72
  -1  -4   3   79.94    6.70
  -1  -4   3   79.30    6.51
  -1  -4   2  272.98   11.51
  -1  -4   2  274.73   11.37
  -1  -4   1  327.08   11.30
  -1  -4   1  316.42   11.65
   1   4   0  104.77    5.91
  -1  -4   0  106.02    6.20
   1   4   1   13.64    2.19
  -1  -4  -1    9.27    1.81
   1   4   2  166.76    7.81
   1   4   3  160.69    8.20
   1   4   4   30.76    3.90
   1   4   5    0.15    0.57
   1   4   6    8.22    2.46
   1   4   7   51.07    4.32
   1   4   8   27.07    3.40
   1   4   9    0.98    0.70
   1   4  10    5.13    1.39
   1   4  10    3.69    1.00
   1   4  11    0.05    0.22
   1   4  11    0.11    0.16
   1   4  12    0.00    0.15
  -1  -5  11    1.10    0.55
  -1  -5  11    0.80    0.36
  -1  -5  10    0.69    0.41
  -1  -5  10    1.10    0.43
  -1  -5   9    2.39    0.75
  -1  -5   9    1.44    0.81
  -1  -5   8    8.22    1.48
  -1  -5   8    9.01    1.73
  -1  -5   8    7.72    1.79
  -1  -5   7   10.26    1.63
  -1  -5   7   11.97    2.59
  -1  -5   7   10.28    1.76
  -1  -5   7   13.63    2.44
  -1  -5   6   12.74    2.30
  -1  -5   6   12.57    2.56
  -1  -5   6    9.67    1.59
  -1  -5   6    8.23    1.41
  -1  -5   6   10.39    2.13
  -1  -5   5   76.54    8.19
  -1  -5   4    2.39    1.34
  -1  -5   3   16.08    3.33
  -1  -5   3   17.69    3.43
  -1  -5   2   29.46    4.37
  -1  -5   2   25.73    3.90
  -1  -5   1   72.39    6.20
  -1  -5   0   17.52    2.93
   1   5   0   19.23    2.76
   1   5   1   56.79    4.88
  -1  -5  -1   68.16    5.93
  -1  -5  -2  179.13    9.77
   1   5   2  170.81    8.81
  -1  -5  -3   86.19    6.94
   1   5   3   86.11    6.59
  -1  -5  -4    3.49    1.55
   1   5   4    1.28    1.01
   1   5   5   54.41    6.09
   1   5   6   35.25    3.64
  -1  -5  -6   37.91    3.20
  -1  -5  -7  115.57    5.80
   1   5   7  116.70    6.90
   1   5   8    6.62    1.61
   1   5   9   15.59    2.35
   1   5  10   11.59    1.75
   1   5  11    2.67    0.71
  -1  -6  10    0.06    0.17
  -1  -6  10   -0.35    0.47
  -1  -6   9    0.51    0.36
  -1  -6   9    0.72    0.60
  -1  -6   8    7.91    1.42
  -1  -6   8    3.93    0.92
  -1  -6   8    6.18    1.59
  -1  -6   7    3.45    1.59
  -1  -6   7    1.58    0.69
  -1  -6   7    1.87    0.66
  -1  -6   7    2.52    1.02
  -1  -6   6    8.17    2.13
  -1  -6   6    4.28    0.99
  -1  -6   6    8.37    1.87
  -1  -6   6    8.39    1.94
  -1  -6   5    0.10    0.50
  -1  -6   5    0.16    0.56
  -1  -6   5    0.17    0.46
  -1  -6   4    0.14    0.46
  -1  -6   4   -0.13    0.67
  -1  -6   4    0.85    0.63
  -1  -6   4    0.09    0.27
  -1  -6   3    5.15    1.96
  -1  -6   2    0.22    0.43
  -1  -6   1   13.81    3.14
  -1  -6   0   13.89    3.10
  -1  -6  -1   18.00    3.44
  -1  -6  -2    9.10    2.53
  -1  -6  -3   12.15    2.84
  -1  -6  -4    4.69    1.26
  -1  -6  -5    1.26    0.59
  -1  -6  -6   14.94    2.16
  -1  -6  -7   15.75    2.14
   1   6   8    0.26    0.54
  -1  -6  -8    0.92    0.63
   1   6   9    0.48    0.53
   1   6  10   -0.16    0.24
  -1  -7   9   -0.18    0.22
  -1  -7   8    2.87    0.85
  -1  -7   8    6.70    1.23
  -1  -7   7    0.44    0.34
  -1  -7   7    1.81    0.78
  -1  -7   6   -0.59    0.71
  -1  -7   6   -2.01    1.20
  -1  -7   6   -0.28    0.74
  -1  -7   5    0.77    0.59
  -1  -7   5    0.65    0.51
  -1  -7   5   -0.20    0.63
  -1  -7   5    0.15    0.38
  -1  -7   4    0.45    0.30
  -1  -7   4    0.72    0.71
  -1  -7   4    0.84    0.34
  -1  -7   4   -0.07    0.43
  -1  -7   3   49.41    3.93
  -1  -7   3   53.12    5.02
  -1  -7   3   44.34    3.43
  -1  -7   3   45.62    4.18
  -1  -7   2    3.81    1.02
  -1  -7   2    5.69    1.47
  -1  -7   1    3.09    0.96
  -1  -7   1    2.68    0.99
  -1  -7   0    7.44    1.55
  -1  -7   0    4.89    1.48
  -1  -7   0    6.67    1.47
  -1  -7  -1   51.88    3.95
  -1  -7  -1   45.72    3.56
  -1  -7  -1   53.29    4.45
  -1  -7  -1   49.72    3.80
  -1  -7  -2    1.87    1.10
  -1  -7  -2    1.28    0.72
  -1  -7  -2    0.23    0.31
  -1  -7  -3   11.96    1.98
  -1  -7  -3    9.65    1.60
  -1  -7  -4    3.64    1.16
  -1  -7  -5   -0.08    0.60
  -1  -7  -6    5.62    1.31
  -1  -7  -7   28.93    2.79
  -1  -7  -8   -0.40    0.57
  -1  -7  -8    0.34    0.46
  -1  -7  -9   -0.30    0.34
  -1  -8   8    0.43    0.26
  -1  -8   8    9.46    1.18
  -1  -8   7    3.32    0.86
  -1  -8   7    1.10    0.46
  -1  -8   6    5.49    1.52
  -1  -8   6    4.49    0.98
  -1  -8   6    5.72    1.26
  -1  -8   5    4.25    1.50
  -1  -8   5    4.00    1.05
  -1  -8   5    1.77    0.63
  -1  -8   5    4.05    1.19
  -1  -8   5    5.62    1.39
  -1  -8   4    2.51    0.96
  -1  -8   4    0.47    0.63
  -1  -8   4    0.76    0.73
  -1  -8   4    0.56    0.48
  -1  -8   3    4.45    1.23
  -1  -8   3    3.54    1.26
  -1  -8   3    5.77    1.63
  -1  -8   3    4.09    1.37
  -1  -8   2    7.07    1.51
  -1  -8   2    6.75    1.79
  -1  -8   2    6.70    1.45
  -1  -8   1    9.70    1.81
  -1  -8   0   19.43    2.59
  -1  -8   0   13.63    2.19
  -1  -8  -1    2.38    1.09
  -1  -8  -1    1.16    0.67
  -1  -8  -1    0.57    0.60
  -1  -8  -2    1.49    0.75
  -1  -8  -2    1.32    0.81
  -1  -8  -2    1.58    0.94
  -1  -8  -3   25.80    2.82
  -1  -8  -3   23.00    2.66
  -1  -8  -3   25.82    3.19
  -1  -8  -4    4.18    1.44
  -1  -8  -4    4.47    1.16
  -1  -8  -4    5.13    1.39
  -1  -8  -5   13.76    2.06
  -1  -8  -5   15.22    2.12
  -1  -8  -5   12.61    2.21
  -1  -8  -6    3.17    1.03
  -1  -8  -6    2.47    0.92
  -1  -8  -6    2.77    1.08
  -1  -8  -7    0.70    0.53
  -1  -8  -7    0.27    0.34
  -1  -8  -7    0.49    0.35
  -1  -8  -8   -0.24    0.30
  -1  -8  -8   -0.04    0.18
  -1  -8  -8   -0.80    0.31
  -1  -9   6    1.73    0.55
  -1  -9   5    3.46    0.82
  -1  -9   5    5.11    1.32
  -1  -9   4    8.30    1.30
  -1  -9   4   13.45    2.26
  -1  -9   4   12.89    1.84
  -1  -9   3   10.81    2.08
  -1  -9   3    5.89    1.02
  -1  -9   3   10.51    1.63
  -1  -9   2    3.84    1.35
  -1  -9   2    4.21    1.15
  -1  -9   1    3.04    1.16
  -1  -9   1    1.78    0.87
  -1  -9   0   16.17    2.40
  -1  -9   0   11.49    1.71
  -1  -9   0   16.46    2.12
  -1  -9  -1   28.12    3.02
  -1  -9  -1   26.78    2.73
  -1  -9  -2    3.97    1.06
  -1  -9  -2    4.28    1.22
  -1  -9  -3    1.51    0.72
  -1  -9  -3   -0.04    0.40
  -1  -9  -4   10.34    1.56
  -1  -9  -4    9.59    1.70
  -1  -9  -5    2.02    0.71
  -1  -9  -5    2.22    0.84
  -1  -9  -6   12.20    1.38
  -1  -9  -6   12.97    1.58
  -1 -10   3    1.44    0.54
  -1 -10   2    5.00    1.08
  -1 -10   2    7.42    1.13
  -1 -10   1    0.71    0.44
  -1 -10   1    0.93    0.51
  -1 -10   0    7.79    1.18
  -1 -10  -1   10.35    1.26
  -1 -10  -1   16.03    1.69
  -1 -10  -2    0.05    0.21
  -1 -10  -2    0.19    0.39
  -1 -10  -3   14.77    1.52
  -1 -10  -3   16.21    1.68
  -1 -10  -4    1.46    0.49
   2  -9  -1    3.35    0.72
   2  -9   0    3.58    0.74
   2  -9   1    1.24    0.44
   2  -9   2    2.04    0.50
   2  -8  -5   34.11    2.24
   2  -8  -4    0.45    0.32
   2  -8  -3    3.10    0.84
   2  -8  -2    0.70    0.44
   2  -8  -1    0.25    0.30
   2  -8  -1   -0.25    0.42
   2  -8   0    3.63    1.05
   2  -8   0    4.65    1.38
   2  -8   1   21.26    2.43
   2  -8   1   19.60    2.75
   2  -8   2   12.43    1.81
   2  -8   2   12.23    2.18
   2  -8   3    3.83    0.97
   2  -8   3    1.94    0.65
   2  -8   3    4.04    1.24
   2  -8   4    5.45    1.08
   2  -8   5    4.41    0.87
  -2   7   7   -0.16    0.20
  -2   7   6    0.58    0.37
   2  -7  -6    0.57    0.38
   2  -7  -5    3.56    0.98
  -2   7   5    1.84    0.68
  -2   7   4    0.99    0.48
   2  -7  -4    1.29    0.62
   2  -7  -3   -0.15    0.41
   2  -7  -2   23.05    2.66
   2  -7  -1   18.31    2.51
   2  -7  -1   14.33    2.11
   2  -7   0    6.99    1.58
   2  -7   0    5.44    1.39
   2  -7   1    7.38    1.64
   2  -7   1    7.27    1.99
   2  -7   2    4.89    1.35
   2  -7   2    6.53    1.77
   2  -7   3   24.93    2.96
   2  -7   3   22.84    3.32
   2  -7   4   30.84    3.11
   2  -7   4   28.19    3.62
   2  -7   5    0.46    0.44
   2  -7   5    0.35    0.77
   2  -7   6    1.37    0.65
   2  -7   7   -0.03    0.19
   2  -6  -8    2.92    0.79
  -2   6   8    4.47    0.90
  -2   6   7    5.85    1.16
   2  -6  -7    6.68    1.34
   2  -6  -6    7.38    1.60
  -2   6   6    7.84    1.50
  -2   6   5   33.36    3.25
   2  -6  -5   30.30    3.28
  -2   6   4   40.20    3.77
   2  -6  -4   36.71    3.71
  -2   6   3   17.11    2.45
   2  -6  -3   17.26    2.60
   2  -6  -3   15.31    2.02
   2  -6  -2  146.08    7.30
   2  -6  -2  140.79    6.52
   2  -6  -1   55.55    4.50
   2  -6  -1   63.45    4.53
   2  -6   0   13.68    2.24
   2  -6   0   17.33    2.65
   2  -6   1    0.57    0.38
   2  -6   1   -0.18    0.52
   2  -6   2   59.65    4.88
   2  -6   3  172.36    8.21
   2  -6   3  174.10    9.25
   2  -6   4    8.94    1.84
   2  -6   4    8.87    2.23
   2  -6   5   57.24    4.57
   2  -6   5   62.65    5.59
   2  -6   6   14.36    2.50
   2  -6   6   15.96    2.27
   2  -6   7    0.41    0.53
   2  -6   8    0.30    0.23
   2  -6   9    1.26    0.40
  -2   5   9    0.11    0.22
  -2   5   9    0.76    0.45
   2  -5  -9    0.35    0.42
  -2   5   8    0.91    0.53
  -2   5   8    0.32    0.35
   2  -5  -8    1.87    0.83
  -2   5   7    8.78    1.66
  -2   5   7    4.94    1.37
  -2   5   6    0.28    0.48
  -2   5   6    0.18    0.50
   2  -5  -5   52.58    4.55
  -2   5   5   54.56    4.36
  -2   5   4    1.81    0.92
   2  -5  -4    0.67    0.66
  -2   5   3   75.90    5.03
   2  -5  -3   75.55    5.39
   2  -5  -2  129.08    6.18
   2  -5  -2  137.21    7.08
   2  -5  -1    7.22    1.59
   2  -5  -1    8.54    1.58
   2  -5   0   -0.10    0.30
   2  -5   0   -0.61    0.78
   2  -5   1    0.83    0.67
   2  -5   1    0.50    0.58
   2  -5   2    1.16    0.47
   2  -5   2    2.18    1.00
   2  -5   3   41.04    4.01
   2  -5   4    0.27    0.50
   2  -5   4    1.14    1.21
   2  -5   5   52.75    4.54
   2  -5   5   51.72    5.11
   2  -5   6    5.46    1.47
   2  -5   6    4.20    1.50
   2  -5   7   68.33    4.91
   2  -5   8   24.10    2.70
   2  -5   9    0.11    0.26
  -2   4  10    0.45    0.34
  -2   4   9    0.15    0.34
  -2   4   9    0.77    0.41
  -2   4   9   -0.25    0.55
  -2   4   8    2.32    0.85
  -2   4   8    1.47    0.74
  -2   4   8    0.95    0.84
  -2   4   7    1.67    0.76
  -2   4   7    0.98    0.71
  -2   4   7    1.02    0.86
  -2   4   6   72.86    5.01
  -2   4   6   65.75    5.52
  -2   4   6   72.04    4.93
  -2   4   5    0.61    0.65
  -2   4   5    0.81    0.50
  -2   4   5    0.57    0.52
  -2   4   4   44.32    3.79
  -2   4   4   38.20    3.93
  -2   4   3   65.65    7.15
  -2   4   2    0.41    0.58
  -2   4   1    6.75    2.05
  -2   4   0    0.60    0.84
  -2   4  -1    0.33    0.65
  -2   4  -2    1.18    0.99
  -2   4  -3   16.76    3.66
   2  -4   4   64.84    6.50
  -2   4  -4   48.94    6.58
   2  -4   5    4.57    1.31
   2  -4   5    3.61    1.34
   2  -4   6   14.35    2.37
   2  -4   7    2.21    1.04
   2  -4   8   25.87    3.04
   2  -4   8   19.47    2.08
   2  -4   9    0.12    0.52
   2  -4   9    0.24    0.30
   2  -4  10    0.49    0.42
   2  -4  10    0.66    0.29
   2  -4  11    1.00    0.36
  -2   3  11    0.42    0.35
  -2   3  10    2.71    0.78
  -2   3  10    0.92    0.59
  -2   3   9   36.02    3.06
  -2   3   9   34.62    3.17
  -2   3   8   17.20    2.27
  -2   3   8   16.59    2.37
  -2   3   7   39.19    3.61
  -2   3   7   34.31    3.41
  -2   3   6    7.14    1.60
  -2   3   6    5.89    1.40
  -2   3   5    0.08    0.56
   2  -3  -5    0.84    0.95
  -2   3   4  125.36    9.25
   2  -3  -4  110.94    9.64
  -2   3   3   97.10    7.97
   2  -3  -3  114.32    9.32
  -2   3   2   51.19    5.54
   2  -3  -2   39.92    5.31
  -2   3   1  225.75   11.43
  -2   3   0   64.94    6.09
  -2   3  -1  293.42   12.93
  -2   3  -2  234.52   11.74
  -2   3  -3    5.71    2.06
  -2   3  -4    3.29    1.51
  -2   3  -5   45.34    6.25
   2  -3   6  216.76    8.74
   2  -3   7   63.08    4.83
   2  -3   8   11.88    2.07
   2  -3   8   12.03    1.77
   2  -3   9   31.36    3.27
   2  -3   9   29.46    2.70
   2  -3  10    0.02    0.35
   2  -3  10    0.33    0.35
   2  -3  11    1.96    0.55
  -2   2  11    0.32    0.33
  -2   2  10    0.12    0.42
  -2   2   9    0.55    0.37
  -2   2   9    0.46    0.36
  -2   2   8    2.85    0.96
  -2   2   8    2.54    0.91
  -2   2   7    2.45    0.97
  -2   2   7    3.43    1.03
  -2   2   6   32.01    3.13
  -2   2   6   32.34    3.13
   2  -2  -5   -0.30    0.82
   2  -2  -4    0.47    0.75
   2  -2  -3    9.04    2.50
   2  -2  -2   48.26    5.38
   2  -2  -1   41.98    4.89
  -2   2   0   18.66    2.99
  -2   2  -1    3.76    1.36
  -2   2  -2    1.83    0.88
  -2   2  -3   10.52    2.37
  -2   2  -4   27.09    4.21
  -2   2  -5    9.63    2.68
  -2   2  -6    2.85    1.65
  -2   2  -6    1.60    1.51
   2  -2   7    1.70    0.85
   2  -2   8   23.09    2.89
   2  -2   9    1.26    0.63
   2  -2   9    0.78    0.58
   2  -2  10    0.81    0.46
   2  -2  11    0.57    0.44
   2  -2  12   -0.05    0.27
  -2   1  11    0.21    0.29
  -2   1  10   19.53    2.27
  -2   1   9    5.27    1.28
  -2   1   8    0.30    0.30
  -2   1   8    0.94    0.64
  -2   1   8    0.02    0.37
  -2   1   7    8.15    1.67
  -2   1   7    7.79    1.66
  -2   1   7   10.86    1.83
   2  -1  -6    5.01    2.11
   2  -1  -5    9.05    2.71
   2  -1  -4  106.15    8.94
   2  -1  -3   81.85    7.29
   2  -1  -2    1.95    1.35
   2  -1  -1   64.15    5.17
   2  -1  -1   66.92    5.55
  -2   1   0  782.63   17.30
   2  -1   0  782.09   17.03
   2  -1   0  798.77   19.03
   2  -1   1    2.46    1.00
  -2   1  -1    2.64    1.12
   2  -1   2    4.84    1.35
  -2   1  -2    4.61    1.40
  -2   1  -3   -0.06    0.52
  -2   1  -4    4.54    1.53
  -2   1  -5   58.94    6.39
  -2   1  -5   61.60    6.21
  -2   1  -6    5.35    2.03
  -2   1  -6    4.39    1.90
   2  -1   7    0.78    0.78
   2  -1   8    2.85    0.98
   2  -1   8    3.20    0.99
   2  -1   9    3.29    1.13
   2  -1   9    4.63    1.27
   2  -1  10    6.64    1.44
   2  -1  11    8.19    1.51
   2  -1  12    0.59    0.40
  -2   0  12    0.72    0.30
  -2   0  11    1.92    0.79
  -2   0  10    0.37    0.41
  -2   0  10    0.36    0.25
  -2   0   9    0.31    0.50
  -2   0   9    0.92    0.47
  -2   0   9    0.02    0.24
  -2   0   8    0.25    0.34
  -2   0   8    0.20    0.35
  -2   0   8    0.68    0.52
  -2   0   7   24.12    2.75
  -2   0   7   27.47    2.62
  -2   0   7   25.75    2.73
   2   0  -6    0.16    0.58
   2   0  -5    9.30    2.86
  -2   0   4   92.70    6.43
   2   0  -4   91.53    8.17
   2   0  -3   69.94    5.88
  -2   0   3   56.43    4.76
   2   0  -3   67.23    6.53
   2   0  -2  109.60    7.66
   2   0  -2  101.41    6.53
   2   0  -1    2.18    1.01
  -2   0   1    1.25    0.56
   2   0  -1    1.90    0.96
   2   0   0    1.79    0.82
  -2   0   0    1.42    0.68
   2   0   0    1.87    0.96
   2   0   1  166.86    8.12
  -2   0  -1  170.47    7.46
  -2   0  -2   60.08    4.70
   2   0   2   49.40    4.34
  -2   0  -3  137.06    7.39
  -2   0  -3  130.15    7.58
   2   0   3  141.37    6.45
  -2   0  -4    5.59    1.65
  -2   0  -4    7.95    2.05
  -2   0  -5   30.64    4.47
  -2   0  -5   28.32    4.09
  -2   0  -6    4.58    1.92
  -2   0  -6    8.17    2.54
  -2   0  -7    1.52    1.23
   2   0   8   82.13    5.45
   2   0   8   76.40    4.61
   2   0   9   18.80    2.33
   2   0  10    1.82    0.76
   2   0  11    3.77    1.04
   2   0  12    1.21    0.48
  -2  -1  12    1.34    0.42
  -2  -1  11    0.35    0.30
  -2  -1  10   37.00    2.78
  -2  -1   9   17.57    2.07
  -2  -1   8   42.01    3.28
  -2  -1   7   -0.08    0.43
  -2  -1   7    0.96    0.75
  -2  -1   6   35.94    5.20
  -2  -1   5  107.56    8.49
   2   1  -4  101.19    7.65
  -2  -1   4   80.58    6.96
   2   1  -3   13.00    2.88
  -2  -1   3   16.91    2.97
   2   1  -3   12.92    2.45
   2   1  -2    7.26    1.77
   2   1  -2    7.92    2.14
   2   1  -1   14.65    2.50
   2   1  -1   15.84    2.62
   2   1   0   86.13    6.00
  -2  -1   0   84.51    4.50
   2   1   0   90.17    5.66
  -2  -1  -1    5.19    1.27
  -2  -1  -1    6.66    1.45
  -2  -1  -2  282.33   10.11
  -2  -1  -2  302.68   10.51
  -2  -1  -3   66.40    5.32
  -2  -1  -3   54.93    4.94
   2   1   3   70.83    5.29
  -2  -1  -4   32.75    4.15
   2   1   4   33.64    3.55
  -2  -1  -5   52.43    5.81
   2   1   5   54.96    4.75
  -2  -1  -6   17.99    3.87
  -2  -1  -7   14.04    3.68
   2   1   8   33.58    3.51
   2   1   8   34.15    3.03
   2   1   9   -0.12    0.32
   2   1   9    0.13    0.32
   2   1  10    1.64    0.75
   2   1  10    0.96    0.53
   2   1  11    0.38    0.48
   2   1  11    0.62    0.37
   2   1  12    1.18    0.48
  -2  -2  11    1.57    0.56
  -2  -2  10   22.83    2.18
  -2  -2   9    3.42    0.98
  -2  -2   8    1.04    0.61
  -2  -2   7    4.04    1.05
  -2  -2   6   78.00    8.46
  -2  -2   5  169.89   12.01
  -2  -2   4   12.52    3.10
   2   2  -4    9.08    2.31
   2   2  -3  276.28   11.86
   2   2  -2  179.63    9.31
  -2  -2   2  163.73    7.08
   2   2  -2  177.13    9.94
   2   2  -1  261.73   10.88
   2   2  -1  248.63   10.24
  -2  -2   1  238.23    8.24
   2   2   0  136.42    6.43
  -2  -2   0  134.20    5.80
  -2  -2  -1   28.52    2.63
  -2  -2  -1   29.76    3.17
  -2  -2  -2   48.85    4.64
  -2  -2  -3   26.32    3.87
   2   2   3   23.46    3.39
  -2  -2  -4  453.56   17.50
   2   2   4  459.38   14.79
  -2  -2  -5  184.05   11.81
   2   2   5  188.56    9.87
   2   2   6   10.23    2.46
   2   2   7   37.28    4.89
   2   2   8   34.64    3.66
   2   2   8   37.14    3.23
   2   2   9    7.79    1.90
   2   2   9    6.70    1.42
   2   2  10   -0.38    0.57
   2   2  10    0.09    0.33
   2   2  11    1.15    0.45
   2   2  11    2.47    0.78
   2   2  12    5.61    0.97
   2   2  12    5.91    0.90
  -2  -3  11    0.30    0.23
  -2  -3  11    1.40    0.48
  -2  -3  11    1.23    0.49
  -2  -3  10   11.62    1.58
  -2  -3  10    8.62    1.63
  -2  -3   9    1.89    0.83
  -2  -3   9    2.80    1.07
  -2  -3   8   11.20    1.76
  -2  -3   8    8.16    1.82
  -2  -3   7    1.14    0.64
  -2  -3   7    0.94    0.79
  -2  -3   6    5.68    2.76
  -2  -3   5   -0.65    0.84
   2   3  -4    5.01    1.75
  -2  -3   3  199.16    9.55
   2   3  -3  213.68   11.14
   2   3  -2   57.09    5.63
  -2  -3   2   57.98    5.04
  -2  -3   1   81.46    5.77
  -2  -3   1   88.12    5.60
  -2  -3   0   -0.06    0.37
  -2  -3   0    0.23    0.37
  -2  -3  -1   -0.14    0.35
   2   3   3    0.87    0.67
   2   3   4   24.84    3.73
   2   3   5    1.66    1.07
   2   3   6   10.13    2.59
  -2  -3  -7   30.74    2.78
   2   3   8   11.04    2.05
   2   3   9    6.51    1.60
   2   3   9    4.46    1.28
   2   3  10    4.40    1.33
   2   3  10    2.65    0.82
   2   3  11    0.75    0.36
   2   3  11    1.34    0.72
   2   3  12    0.56    0.36
  -2  -4  11    4.19    0.73
  -2  -4  11    2.94    0.72
  -2  -4  10    1.84    0.66
  -2  -4  10    1.98    0.74
  -2  -4   9   18.91    2.04
  -2  -4   9   18.90    2.57
  -2  -4   8    1.43    0.70
  -2  -4   8    1.25    0.74
  -2  -4   7    9.66    1.60
  -2  -4   7   11.58    2.26
  -2  -4   6    5.43    1.22
  -2  -4   6    8.14    1.69
  -2  -4   6    6.75    1.69
  -2  -4   5   31.21    5.21
  -2  -4   4   68.00    7.36
  -2  -4   3  101.85    8.48
  -2  -4   3   97.60    7.72
   2   4  -3  110.14    8.39
  -2  -4   2 1717.32   32.46
   2   4  -2 1704.18   33.11
  -2  -4   2 1711.73   30.45
  -2  -4   1  284.97   12.24
  -2  -4   1  290.48   11.56
  -2  -4   0   35.08    4.06
  -2  -4   0   37.17    4.27
  -2  -4  -1   62.06    5.57
  -2  -4  -2   25.40    3.67
   2   4   2   24.79    3.67
   2   4   3  138.43    8.64
   2   4   4   12.40    2.76
   2   4   5   29.58    4.48
  -2  -4  -6   18.09    2.04
   2   4   7    6.19    1.58
  -2  -4  -7    3.76    1.03
   2   4   8  107.71    6.33
   2   4   9    8.98    1.84
   2   4  10    0.36    0.47
   2   4  11   -0.47    0.27
  -2  -5  10    8.09    1.06
  -2  -5  10    8.88    1.41
  -2  -5   9    5.92    1.04
  -2  -5   9    6.07    1.41
  -2  -5   8    0.43    0.44
  -2  -5   8   -0.19    0.45
  -2  -5   7    3.28    0.91
  -2  -5   7    4.03    1.31
  -2  -5   6    0.35    0.48
  -2  -5   6    0.44    0.61
  -2  -5   5    0.47    0.44
  -2  -5   5    1.62    0.98
  -2  -5   5    0.75    0.41
  -2  -5   5    2.50    1.16
  -2  -5   4    2.91    1.54
  -2  -5   4    1.28    0.69
  -2  -5   3    6.19    2.27
  -2  -5   3    5.17    1.86
  -2  -5   2   15.56    3.44
  -2  -5   2   14.85    3.06
   2   5  -2   13.68    3.24
  -2  -5   1    6.26    2.07
  -2  -5   1    8.02    2.24
  -2  -5   0  102.14    7.98
   2   5   0   98.60    7.86
  -2  -5  -1   44.70    5.43
   2   5   1   49.42    5.54
  -2  -5  -2   12.25    2.71
   2   5   2   12.08    2.82
  -2  -5  -3   28.59    4.26
   2   5   3   30.85    4.40
  -2  -5  -4    1.18    1.03
   2   5   4    1.25    0.74
  -2  -5  -5    5.35    1.11
   2   5   6   23.39    2.88
  -2  -5  -6   22.28    2.35
   2   5   7   28.36    3.28
  -2  -5  -7   26.72    2.83
   2   5   8   16.83    2.54
   2   5   9   -0.69    0.64
   2   5  10    4.46    1.10
   2   5  11   11.56    1.31
  -2  -6  10    1.05    0.59
  -2  -6  10    1.41    0.46
  -2  -6   9    1.18    0.47
  -2  -6   9    1.84    0.70
  -2  -6   8    9.42    1.28
  -2  -6   8   14.75    2.15
  -2  -6   7    9.21    1.90
  -2  -6   7    0.91    0.38
  -2  -6   6    1.61    0.98
  -2  -6   6   -0.61    0.55
  -2  -6   5    1.14    0.72
  -2  -6   5    0.37    0.71
  -2  -6   5    1.19    0.71
  -2  -6   5    0.49    0.49
  -2  -6   4    7.17    1.53
  -2  -6   4    7.28    1.97
  -2  -6   4    4.86    1.23
  -2  -6   4    6.67    1.61
  -2  -6   3   42.28    3.58
  -2  -6   3   36.26    4.04
  -2  -6   3   32.81    3.04
  -2  -6   3   38.98    3.93
  -2  -6   3   28.72    2.83
  -2  -6   2   90.49    6.43
  -2  -6   2   96.50    5.20
  -2  -6   2   93.57    6.09
  -2  -6   1    5.92    2.18
  -2  -6   0    2.15    1.08
  -2  -6  -1   27.62    4.70
   2   6   1   20.70    3.78
   2   6   2   23.57    4.12
  -2  -6  -3    7.56    1.31
  -2  -6  -4    0.61    0.45
  -2  -6  -5    1.54    0.67
  -2  -6  -6   29.95    3.05
   2   6   7   11.08    2.02
  -2  -6  -7   13.29    2.01
   2   6   8    1.02    0.71
   2   6   9    0.82    0.50
   2   6  10    0.04    0.22
  -2  -7   9    0.75    0.41
  -2  -7   9    1.00    0.45
  -2  -7   8    4.05    1.00
  -2  -7   8    4.57    1.01
  -2  -7   7   -0.02    0.45
  -2  -7   7    0.26    0.40
  -2  -7   6   26.03    2.55
  -2  -7   6   17.77    2.36
  -2  -7   5    1.69    0.90
  -2  -7   5    0.08    0.36
  -2  -7   5    0.92    0.66
  -2  -7   5    1.81    0.84
  -2  -7   5    0.64    0.64
  -2  -7   5    0.79    0.59
  -2  -7   4    4.42    1.47
  -2  -7   4    4.04    1.09
  -2  -7   4    5.83    1.68
  -2  -7   4    6.10    1.24
  -2  -7   4    4.97    1.38
  -2  -7   4    4.44    1.05
  -2  -7   3    1.08    0.68
  -2  -7   3    1.32    0.47
  -2  -7   3    1.13    0.66
  -2  -7   3   -0.64    0.58
  -2  -7   3    2.42    1.16
  -2  -7   3    1.66    0.57
  -2  -7   2   17.63    2.80
  -2  -7   2   19.06    2.35
  -2  -7   2   16.98    2.67
  -2  -7   2   15.86    2.03
  -2  -7   2   22.26    3.09
  -2  -7   1   12.06    1.93
  -2  -7   0    3.50    1.01
  -2  -7   0    2.88    1.06
  -2  -7  -1   37.59    3.26
  -2  -7  -1   40.87    3.66
  -2  -7  -2   26.68    2.65
  -2  -7  -2   41.06    3.56
  -2  -7  -3    0.85    0.48
  -2  -7  -4   25.39    2.94
  -2  -7  -5   23.43    2.83
  -2  -7  -6   81.36    4.96
  -2  -7  -7    7.43    1.41
  -2  -7  -8    8.11    1.26
  -2  -7  -9    6.01    1.02
  -2  -8   7    0.32    0.30
  -2  -8   7    0.78    0.42
  -2  -8   6    0.64    0.26
  -2  -8   6    0.18    0.26
  -2  -8   5    0.53    0.46
  -2  -8   5    1.74    0.70
  -2  -8   5    0.61    0.56
  -2  -8   4    1.77    0.77
  -2  -8   4    1.41    0.51
  -2  -8   4    2.20    0.93
  -2  -8   4    3.93    1.00
  -2  -8   4    4.13    1.33
  -2  -8   4    3.22    0.97
  -2  -8   3   -0.39    0.48
  -2  -8   3   -0.20    0.43
  -2  -8   3   -0.31    0.40
  -2  -8   2    5.70    1.35
  -2  -8   2    3.84    1.26
  -2  -8   2    7.73    1.50
  -2  -8   1    3.39    1.06
  -2  -8   0    2.25    0.90
  -2  -8  -1    2.79    1.10
  -2  -8  -1    2.11    0.99
  -2  -8  -1    2.73    1.16
  -2  -8  -1    1.29    0.79
  -2  -8  -2   10.97    1.77
  -2  -8  -2   12.22    2.17
  -2  -8  -2   11.42    1.92
  -2  -8  -2   10.86    2.04
  -2  -8  -3    1.45    0.81
  -2  -8  -3    1.09    0.63
  -2  -8  -4    1.22    0.58
  -2  -8  -4    0.80    0.49
  -2  -8  -5    9.29    1.69
  -2  -8  -5    6.94    1.44
  -2  -8  -6   11.61    1.65
  -2  -8  -6    8.70    1.54
  -2  -8  -7    1.66    0.63
  -2  -8  -7    0.33    0.43
  -2  -8  -7    1.76    0.74
  -2  -8  -8   -0.22    0.24
  -2  -8  -8   -0.05    0.19
  -2  -9   4   11.88    1.47
  -2  -9   4   14.27    1.70
  -2  -9   3    2.50    0.87
  -2  -9   3    0.27    0.34
  -2  -9   3    1.68    0.64
  -2  -9   2    5.43    1.22
  -2  -9   2    4.37    1.01
  -2  -9   1    3.83    1.19
  -2  -9   1    0.06    0.29
  -2  -9   0   22.45    2.49
  -2  -9  -1    4.37    1.34
  -2  -9  -2    0.32    0.48
  -2  -9  -2    1.71    0.71
  -2  -9  -3    0.08    0.40
  -2  -9  -3    0.76    0.69
  -2  -9  -4    0.45    0.40
  -2  -9  -4    0.00    0.32
  -2  -9  -4   -0.11    0.45
  -2  -9  -5    4.05    0.92
  -2  -9  -5    3.38    0.87
  -2  -9  -5    3.85    1.16
  -2  -9  -6   12.61    1.35
  -2  -9  -6   11.57    1.41
  -2  -9  -6   12.28    1.55
  -2 -10   2    2.78    0.63
  -2 -10   1    3.46    0.65
  -2 -10   0    0.05    0.23
  -2 -10  -1   -0.14    0.22
  -2 -10  -2    7.22    0.97
  -2 -10  -3    0.47    0.24
   3  -7  -4    0.19    0.24
   3  -7  -3    7.54    1.11
   3  -7  -3    6.68    1.34
   3  -7  -2    2.49    0.65
   3  -7  -2    3.11    0.81
   3  -7  -2    3.55    0.99
   3  -7  -1    2.75    0.77
   3  -7  -1    4.31    1.19
   3  -7   0    2.79    0.78
   3  -7   0    3.63    1.16
   3  -7   1    2.82    0.81
   3  -7   1    2.64    0.96
   3  -7   2   19.13    2.08
   3  -7   2   20.96    2.60
   3  -7   3    1.91    0.61
   3  -7   3    1.52    0.74
   3  -7   4    1.18    0.50
   3  -7   4    1.08    0.67
   3  -7   5    1.80    0.48
   3  -6  -6   42.08    2.63
   3  -6  -5    1.64    0.61
   3  -6  -4    2.33    0.74
   3  -6  -3    1.48    0.69
   3  -6  -2   -0.24    0.26
   3  -6  -2   -0.20    0.46
   3  -6  -1    2.86    0.93
   3  -6  -1    3.93    1.14
   3  -6   0   25.05    2.82
   3  -6   0   24.73    2.80
   3  -6   1   25.61    3.01
   3  -6   2    5.40    1.43
   3  -6   3   11.02    1.92
   3  -6   3   13.36    2.32
   3  -6   4   16.34    2.19
   3  -6   4   13.83    2.31
   3  -6   5    1.04    0.70
   3  -6   5   -0.14    0.48
   3  -6   6   -0.32    0.39
  -3   6  -6    0.28    0.42
   3  -6   7    0.98    0.39
   3  -5  -8    0.81    0.33
   3  -5  -7   -0.30    0.25
   3  -5  -6    2.59    0.80
  -3   5   5   -0.73    0.44
   3  -5  -5   -0.05    0.36
  -3   5   4    0.73    0.49
   3  -5  -4    0.20    0.31
  -3   5   3   20.36    2.47
   3  -5  -3   21.09    2.68
   3  -5  -2   19.02    2.57
   3  -5  -1   13.65    2.19
   3  -5   0   12.99    2.19
   3  -5   0   12.03    2.07
   3  -5   1   11.77    2.16
   3  -5   1   11.66    2.08
   3  -5   2   49.33    4.49
   3  -5   3   80.12    5.67
   3  -5   4    0.53    0.54
   3  -5   4    0.83    0.63
   3  -5   5    0.77    0.55
   3  -5   5    0.43    0.44
   3  -5   6    0.00    0.46
  -3   5  -6   -0.21    0.24
   3  -5   7    0.00    0.25
   3  -5   7    0.56    0.33
   3  -5   8    0.25    0.30
   3  -4  -9    2.23    0.57
  -3   4   8    4.12    1.01
   3  -4  -8    4.50    0.95
  -3   4   7    3.54    1.15
   3  -4  -7    3.81    1.00
  -3   4   6   21.88    2.58
  -3   4   6   15.90    2.54
   3  -4  -6   16.80    2.33
  -3   4   5   37.99    3.58
  -3   4   5   27.76    3.54
   3  -4  -5   30.37    3.26
  -3   4   4   12.59    2.14
  -3   4   4    6.48    1.90
   3  -4  -4   12.06    2.20
  -3   4   3  121.98    6.30
   3  -4  -3  133.27    7.20
   3  -4  -2   74.92    5.43
   3  -4  -1   27.68    3.29
   3  -4   0    5.91    1.45
   3  -4   1   41.50    3.84
   3  -4   2  188.68    8.06
   3  -4   3    2.82    0.98
   3  -4   4   60.22    4.83
   3  -4   5   18.15    2.59
   3  -4   6    1.32    0.69
  -3   4  -6    1.85    0.82
   3  -4   7    0.83    0.58
  -3   4  -7    0.34    0.43
   3  -4   8    2.31    0.74
   3  -4   8    2.38    0.64
   3  -4   9    6.11    0.89
   3  -4   9    6.18    1.05
  -3   3   9    0.24    0.37
   3  -3  -9    0.36    0.22
  -3   3   8    6.05    1.36
  -3   3   7    0.88    0.86
  -3   3   6   60.29    4.43
  -3   3   6   54.01    4.82
  -3   3   5   -0.07    0.32
  -3   3   5   -0.03    0.64
  -3   3   4   81.30    5.42
  -3   3   4   72.84    5.56
   3  -3  -4   74.25    5.40
  -3   3   3  152.91    7.21
  -3   3   3  177.76    8.35
   3  -3  -3  158.14    8.02
  -3   3   2    7.35    1.51
  -3   3   2    6.83    1.90
   3  -3  -2    8.70    1.88
   3  -3  -1   -0.23    0.51
   3  -3   0    2.38    0.96
   3  -3   1    0.77    0.50
   3  -3   2   44.20    3.76
  -3   3  -2   41.10    3.29
  -3   3  -3    0.21    0.24
  -3   3  -4   61.96    4.18
   3  -3   5    2.68    1.02
   3  -3   6   98.98    5.93
  -3   3  -6  113.15    6.99
   3  -3   7   47.84    3.94
  -3   3  -7   49.18    4.22
   3  -3   8    0.82    0.50
   3  -3   9    0.97    0.56
   3  -3   9    1.38    0.60
   3  -3  10    7.12    1.00
  -3   2  10    0.41    0.22
  -3   2   9    0.18    0.29
  -3   2   8    0.31    0.47
  -3   2   7   43.03    4.34
  -3   2   6    0.96    0.54
  -3   2   6    0.94    0.50
  -3   2   5   21.52    2.76
  -3   2   5   19.80    2.82
  -3   2   4   43.73    3.94
  -3   2   4   44.63    4.05
  -3   2   3    0.99    0.56
  -3   2   3    0.69    0.84
   3  -2  -2    0.46    0.71
  -3   2   1    1.20    0.80
  -3   2   0    2.00    1.27
  -3   2  -1    1.93    1.42
  -3   2  -2   31.05    5.12
  -3   2  -3   35.67    5.58
  -3   2  -4    6.00    1.29
  -3   2  -5   11.04    2.30
  -3   2  -6    1.31    0.91
   3  -2   7   24.51    2.91
  -3   2  -7   27.81    3.40
   3  -2   8   -0.45    0.57
   3  -2   9    3.14    0.86
   3  -2  10    2.34    0.72
   3  -2  11    0.68    0.29
  -3   1  10    9.43    1.12
  -3   1  10   11.44    1.50
  -3   1   9    9.93    1.44
  -3   1   9   10.14    1.84
  -3   1   9    8.54    1.34
  -3   1   8   12.57    1.89
  -3   1   8   11.35    2.21
  -3   1   7    3.74    1.13
  -3   1   7    5.52    1.59
  -3   1   6    0.25    0.29
  -3   1   6    0.53    0.70
  -3   1   5   63.18    4.35
  -3   1   5   76.04    5.29
  -3   1   4   71.46    4.97
  -3   1   4   67.47    4.88
   3  -1  -3   13.24    3.51
   3  -1  -2  177.83   13.05
   3  -1  -1   42.79    6.29
   3  -1   0  192.09   11.28
  -3   1   0  188.15   11.35
  -3   1  -1  201.56   11.82
  -3   1  -2    7.53    2.32
  -3   1  -3    0.33    0.37
  -3   1  -4   36.78    5.59
  -3   1  -4   44.66    6.16
  -3   1  -5  282.86   11.25
  -3   1  -5  266.83    9.40
  -3   1  -6  111.15    7.11
  -3   1  -7    8.66    2.02
   3  -1   8   33.49    3.36
   3  -1   9    0.55    0.35
   3  -1  10    5.42    1.12
   3  -1  11    2.95    0.69
  -3   0  10   -0.38    0.32
  -3   0  10   -0.19    0.15
  -3   0   9    0.62    0.51
  -3   0   9   -0.08    0.27
  -3   0   8    0.65    0.59
  -3   0   8    1.19    0.65
  -3   0   8    1.21    0.67
  -3   0   7   17.55    2.59
  -3   0   7   19.45    2.30
  -3   0   6    0.02    0.32
  -3   0   6    0.80    0.34
  -3   0   5    0.94    0.45
  -3   0   5    1.46    0.78
  -3   0   5    2.08    0.85
   3   0  -4    0.63    0.84
   3   0  -3    3.89    1.76
   3   0  -2   14.48    3.12
   3   0  -2   18.65    4.27
   3   0  -1    1.27    0.95
   3   0  -1    1.08    1.27
   3   0   0    4.54    1.63
  -3   0  -1    0.05    0.30
   3   0   1    0.00    0.70
  -3   0  -2    3.46    1.36
  -3   0  -3   15.77    3.22
  -3   0  -4   10.26    2.89
  -3   0  -5    0.57    0.84
  -3   0  -5    1.02    1.04
  -3   0  -6    0.55    0.37
  -3   0  -7   14.15    2.61
   3   0   8    0.73    0.62
   3   0   9    1.33    0.68
   3   0  10    1.12    0.49
   3   0  11    0.45    0.31
  -3  -1  10    2.86    0.70
  -3  -1   9    1.07    0.67
  -3  -1   9    0.67    0.32
  -3  -1   8    6.13    1.22
  -3  -1   7    0.59    0.42
  -3  -1   7    0.01    0.40
  -3  -1   6    0.69    0.58
  -3  -1   5   39.63    3.63
  -3  -1   5   33.98    3.69
  -3  -1   5   44.44    3.41
   3   1  -4   30.86    5.40
   3   1  -3    0.12    0.61
   3   1  -3    1.13    1.25
   3   1  -2    7.78    2.27
   3   1  -2    7.68    2.60
   3   1  -1  237.93   13.49
   3   1  -1  229.15   12.47
   3   1   0    3.20    1.59
   3   1   1    1.00    0.81
   3   1   2   -0.29    0.52
  -3  -1  -3    4.51    1.78
   3   1   3    2.58    1.36
   3   1   3    3.97    1.40
  -3  -1  -4   46.13    5.84
  -3  -1  -5    5.87    2.22
  -3  -1  -6    4.71    1.63
   3   1   7    1.45    0.56
  -3  -1  -7    1.70    0.93
   3   1   8    1.37    0.58
   3   1   9    5.28    1.42
   3   1   9    3.78    0.98
   3   1  10    5.38    1.26
   3   1  10    6.24    1.18
   3   1  11   -0.18    0.29
  -3  -2  10    0.01    0.18
  -3  -2  10    0.29    0.20
  -3  -2   9   -0.09    0.40
  -3  -2   9   -0.39    0.34
  -3  -2   8   13.11    1.93
  -3  -2   8   15.92    1.95
  -3  -2   7    1.10    0.76
  -3  -2   7    0.97    0.67
  -3  -2   6    3.06    1.01
  -3  -2   6    2.19    0.82
  -3  -2   6    2.41    0.83
  -3  -2   5   29.09    3.22
  -3  -2   5   22.95    2.75
  -3  -2   5   22.77    2.48
   3   2  -4   14.85    3.67
   3   2  -4    8.96    2.91
   3   2  -3   18.16    4.09
   3   2  -3   24.42    4.32
   3   2  -2    0.27    0.39
   3   2  -2    0.46    0.67
   3   2  -1   -0.59    0.96
   3   2   0   56.03    6.18
   3   2   1   32.68    4.60
   3   2   2   38.85    4.97
   3   2   3    3.92    1.79
  -3  -2  -4   11.25    3.09
   3   2   4   10.77    2.74
  -3  -2  -5    2.72    1.71
  -3  -2  -6    3.15    1.40
  -3  -2  -6    2.62    0.73
  -3  -2  -7   46.28    5.03
  -3  -2  -7   42.27    3.08
   3   2   9    0.80    0.56
   3   2   9    0.56    0.48
   3   2  10    3.52    1.07
   3   2  10    2.74    0.79
   3   2  11    0.60    0.38
  -3  -3  10    4.31    0.81
  -3  -3  10    7.52    1.05
  -3  -3   9    9.75    1.42
  -3  -3   9   12.40    1.52
  -3  -3   8   -0.38    0.37
  -3  -3   8    0.63    0.44
  -3  -3   7   11.23    1.88
  -3  -3   7   12.23    1.84
  -3  -3   6   23.02    2.87
  -3  -3   6   20.92    2.42
  -3  -3   5   13.36    2.21
  -3  -3   5    7.82    1.63
  -3  -3   5   10.81    1.60
  -3  -3   4    8.78    1.80
  -3  -3   4    7.17    1.72
  -3  -3   4    6.66    1.50
  -3  -3   4    6.03    1.25
   3   3  -3   -0.62    0.87
   3   3  -2    0.41    0.59
   3   3  -1   23.30    4.33
   3   3   0   -0.30    0.93
   3   3   1   37.94    5.09
  -3  -3  -2    2.55    1.37
   3   3   3   13.02    3.15
   3   3   4   17.05    3.68
  -3  -3  -5    8.47    2.24
  -3  -3  -5    8.07    1.41
  -3  -3  -6    8.18    2.30
  -3  -3  -6    8.59    1.59
  -3  -3  -7   15.95    3.06
  -3  -3  -7   23.58    2.50
   3   3   8    0.47    0.53
   3   3   9    0.01    0.31
   3   3  10    0.01    0.32
   3   3  11   -0.08    0.24
  -3  -4  10    0.35    0.15
  -3  -4   9    0.28    0.24
  -3  -4   9   -0.55    0.49
  -3  -4   9   -0.26    0.37
  -3  -4   8    1.56    0.69
  -3  -4   8    1.44    0.73
  -3  -4   8    1.56    0.53
  -3  -4   7   15.90    2.08
  -3  -4   7   14.86    2.44
  -3  -4   7   16.41    2.03
  -3  -4   6   31.26    3.06
  -3  -4   6   33.29    2.93
  -3  -4   6   31.87    2.92
  -3  -4   6   29.91    3.24
  -3  -4   5    3.73    1.09
  -3  -4   5    3.26    1.17
  -3  -4   5    2.65    0.89
  -3  -4   5    2.05    0.85
  -3  -4   4   51.00    4.04
  -3  -4   4   54.20    4.85
  -3  -4   4   38.62    3.05
  -3  -4   4   42.33    3.89
  -3  -4   3   24.04    3.26
  -3  -4   3   20.77    2.69
  -3  -4   3   22.52    2.65
   3   4  -2   55.50    7.44
   3   4  -1   31.59    5.68
   3   4   0    2.93    1.78
  -3  -4  -2    3.27    1.58
   3   4   2    4.21    1.89
  -3  -4  -3  106.99    9.06
   3   4   3  103.57    8.90
  -3  -4  -4   69.25    6.60
  -3  -4  -4   60.17    3.70
  -3  -4  -5    3.91    1.72
  -3  -4  -5    2.99    0.93
  -3  -4  -6   28.74    4.10
  -3  -4  -6   36.95    3.13
  -3  -4  -7   15.10    2.77
  -3  -4  -7   22.54    2.49
   3   4   8    5.81    1.39
   3   4   9    0.06    0.37
   3   4  10    0.40    0.43
   3   4  11    3.79    0.73
  -3  -5   9    2.67    0.81
  -3  -5   9    2.29    0.52
  -3  -5   8   -0.04    0.41
  -3  -5   8    0.21    0.22
  -3  -5   8   -0.04    0.28
  -3  -5   7   -0.07    0.42
  -3  -5   7   -0.41    0.31
  -3  -5   7    0.35    0.38
  -3  -5   6   -0.13    0.42
  -3  -5   6   -0.24    0.37
  -3  -5   6    0.15    0.34
  -3  -5   6    0.37    0.34
  -3  -5   5    1.28    0.77
  -3  -5   5    0.77    0.45
  -3  -5   5    0.85    0.55
  -3  -5   4   60.82    5.50
  -3  -5   4   62.28    4.08
  -3  -5   4   61.13    5.04
  -3  -5   3   17.43    3.02
  -3  -5   3   14.24    2.43
  -3  -5   2   21.51    3.43
  -3  -5   2   17.09    2.71
  -3  -5   1    0.81    0.92
  -3  -5   1    0.57    0.68
  -3  -5   0    0.68    0.55
  -3  -5   0   -0.15    0.58
  -3  -5   0   -0.47    0.77
  -3  -5  -1    1.52    0.68
  -3  -5  -1    1.02    0.59
  -3  -5  -2   -0.72    0.68
  -3  -5  -2    0.32    0.32
  -3  -5  -3    3.84    1.58
  -3  -5  -3    5.37    1.12
  -3  -5  -4    0.25    0.77
  -3  -5  -4    0.04    0.27
  -3  -5  -5    1.18    0.59
  -3  -5  -6   23.14    2.37
   3   5   7    8.62    1.72
  -3  -5  -7    7.12    1.36
   3   5   8    2.92    0.94
   3   5   9    2.00    0.74
   3   5  10    0.11    0.32
  -3  -6   8    0.94    0.55
  -3  -6   8    1.59    0.60
  -3  -6   7    0.18    0.45
  -3  -6   7    0.86    0.51
  -3  -6   6    4.44    1.27
  -3  -6   6    5.00    1.01
  -3  -6   6    5.09    1.29
  -3  -6   5   18.68    2.96
  -3  -6   5   17.05    2.06
  -3  -6   5   20.80    2.79
  -3  -6   4    5.75    1.87
  -3  -6   4    6.33    1.37
  -3  -6   4    5.42    1.58
  -3  -6   3  323.63   13.53
  -3  -6   3  325.68    9.80
  -3  -6   3  329.51   12.29
  -3  -6   2   93.86    7.44
  -3  -6   2   91.13    5.50
  -3  -6   2   97.48    6.88
  -3  -6   1    3.81    1.78
  -3  -6   1    4.38    1.45
  -3  -6   0   12.64    2.10
  -3  -6   0    8.03    1.38
  -3  -6  -1    2.27    0.93
  -3  -6  -1    1.65    0.61
  -3  -6  -2   26.40    2.43
  -3  -6  -3    8.30    1.40
  -3  -6  -4    3.53    0.93
  -3  -6  -5    5.50    1.12
   3   6   6    1.36    0.68
  -3  -6  -6    0.15    0.26
   3   6   7   42.97    3.56
  -3  -6  -7   51.17    3.44
   3   6   8    5.01    1.14
   3   6   9   -0.18    0.36
  -3  -7   7    0.08    0.41
  -3  -7   7   -0.09    0.25
  -3  -7   6    0.50    0.47
  -3  -7   6    0.38    0.19
  -3  -7   5    0.12    0.63
  -3  -7   5   -0.64    0.56
  -3  -7   5    0.47    0.49
  -3  -7   4    1.21    0.58
  -3  -7   4    2.09    0.83
  -3  -7   4    2.23    1.05
  -3  -7   3    3.61    1.53
  -3  -7   3    3.16    1.10
  -3  -7   2    3.45    1.65
  -3  -7   2    2.04    0.94
  -3  -7   1   27.00    3.05
  -3  -7   0   17.08    2.42
  -3  -7  -1    0.80    0.57
  -3  -7  -1    1.77    0.88
  -3  -7  -2    7.79    1.33
  -3  -7  -2   12.58    1.94
  -3  -7  -3    1.39    0.60
  -3  -7  -3    2.38    0.95
  -3  -7  -4    3.44    0.89
  -3  -7  -4    4.80    1.12
  -3  -7  -5    4.51    0.99
  -3  -7  -5    6.74    1.28
  -3  -7  -6   15.40    1.97
  -3  -7  -6    9.84    1.54
  -3  -7  -7    7.31    1.21
  -3  -7  -7    5.68    1.01
  -3  -7  -8   -0.04    0.18
  -3  -8   5    1.01    0.71
  -3  -8   5    0.41    0.32
  -3  -8   4    6.39    1.02
  -3  -8   3   27.58    2.37
  -3  -8   2    0.21    0.35
  -3  -8   1   -0.01    0.65
  -3  -8   0    2.92    0.78
  -3  -8  -1    6.70    1.30
  -3  -8  -1    2.16    0.98
  -3  -8  -2    4.57    1.35
  -3  -8  -3    1.87    0.98
  -3  -8  -3    1.86    0.71
  -3  -8  -4    1.33    0.67
  -3  -8  -4    0.89    0.46
  -3  -8  -5    8.00    1.42
  -3  -8  -5    5.38    1.02
  -3  -8  -6    4.95    0.93
  -3  -8  -6    2.69    0.65
  -3  -8  -7    0.24    0.15
  -3  -8  -7    1.07    0.43
  -3  -9   4    0.44    0.28
  -3  -9   3    4.41    0.77
  -3  -9   2    5.95    1.03
  -3  -9   1    1.65    0.69
  -3  -9   0    8.87    1.31
  -3  -9   0    3.88    0.79
  -3  -9  -1   11.56    1.49
  -3  -9  -1    9.40    1.27
  -3  -9  -2    0.84    0.35
  -3  -9  -3    1.19    0.51
  -3  -9  -4    4.25    0.86
  -3  -9  -4    2.17    0.59
  -3  -9  -5   21.27    1.57
   4  -6  -1    3.18    0.83
   4  -6   0    1.77    0.66
   4  -6   1    0.54    0.37
  -4   6  -1    0.06    0.20
   4  -6   2    3.03    0.78
  -4   6  -2    2.52    0.71
  -4   6  -3    3.52    0.77
   4  -5  -4    4.84    0.81
   4  -5  -3    0.60    0.27
   4  -5  -2    0.49    0.27
  -4   5   0    0.38    0.32
  -4   5  -1   15.34    2.02
  -4   5  -2    2.55    0.86
   4  -5   3    0.95    0.64
  -4   5  -3    0.94    0.51
  -4   5  -4    4.29    0.99
  -4   5  -5   -0.01    0.24
   4  -4  -6    1.43    0.42
  -4   4   6    1.58    0.49
   4  -4  -5    0.46    0.23
  -4   4   5    0.30    0.21
   4  -4  -4    1.64    0.58
  -4   4   4    1.48    0.58
   4  -4  -3   -0.03    0.25
  -4   4   3    0.14    0.18
   4  -4  -2    2.81    0.91
   4  -4  -1   20.09    2.40
   4  -4   0   25.85    2.74
  -4   4   0   28.53    3.00
  -4   4   0   24.10    2.52
  -4   4  -1    4.66    1.15
  -4   4  -1    4.77    1.31
  -4   4  -2    9.86    1.77
  -4   4  -2    8.83    1.45
  -4   4  -3   17.50    2.34
  -4   4  -4    0.95    0.64
  -4   4  -5    0.61    0.50
  -4   4  -6    3.07    0.87
   4  -4   7    0.35    0.21
   4  -3  -7    0.73    0.29
  -4   3   7    0.85    0.35
   4  -3  -6    0.52    0.35
  -4   3   6    0.66    0.31
   4  -3  -5    2.53    0.72
   4  -3  -4    8.60    1.48
   4  -3  -3   12.24    1.90
   4  -3  -2   11.91    1.94
  -4   3   2    8.78    1.48
   4  -3  -1   15.91    2.32
   4  -3   0   16.81    2.40
  -4   3   0   13.71    2.22
  -4   3  -1   43.91    4.11
  -4   3  -1   49.32    3.84
  -4   3  -2   89.59    5.93
  -4   3  -2   88.59    4.99
  -4   3  -3    2.01    0.76
  -4   3  -3    2.71    1.09
  -4   3  -4    0.33    0.68
  -4   3  -5   -0.02    0.41
  -4   3  -6    0.34    0.65
  -4   3  -7    0.88    0.60
   4  -3   8    3.37    0.62
  -4   2   8    0.88    0.39
   4  -2  -7    3.70    0.77
  -4   2   7    4.26    0.87
   4  -2  -6    9.60    1.43
  -4   2   6   12.43    1.75
   4  -2  -5    3.23    0.88
   4  -2  -4   59.05    4.06
   4  -2  -3   38.21    3.42
   4  -2  -2   16.65    2.37
  -4   2   2   19.13    2.42
  -4   2   0   14.18    2.29
  -4   2  -1  141.54    7.63
  -4   2  -1  152.24    6.99
  -4   2  -2    0.19    0.56
  -4   2  -2    0.40    0.65
  -4   2  -3   34.42    3.95
  -4   2  -3   31.98    3.08
  -4   2  -4   13.39    2.44
  -4   2  -4    9.87    1.73
  -4   2  -5    3.42    1.43
  -4   2  -6    1.58    0.93
  -4   2  -7    3.40    1.03
   4  -2   8    7.28    1.05
   4  -2   9    9.48    1.01
  -4   1   8   -0.10    0.15
  -4   1   7   22.95    2.21
  -4   1   6    0.66    0.61
  -4   1   5   40.36    3.57
  -4   1   4  104.65    6.05
  -4   1   3    8.49    1.82
  -4   1   2    0.11    0.36
  -4   1   1    2.51    0.97
  -4   1   0   -0.34    0.50
  -4   1  -1   38.67    4.09
  -4   1  -2    0.07    0.44
  -4   1  -2    0.32    0.24
  -4   1  -3   79.96    6.25
  -4   1  -3   69.20    4.58
  -4   1  -4    0.71    0.76
  -4   1  -4    0.92    0.53
  -4   1  -5  125.31    8.09
  -4   1  -6   68.08    5.74
  -4   1  -7    0.60    0.64
   4  -1   8    0.74    0.32
  -4   1  -8    1.84    0.75
   4  -1   9    8.49    1.06
  -4   0   8    8.69    1.20
  -4   0   8   11.77    1.30
  -4   0   7    0.45    0.38
  -4   0   7    0.86    0.46
  -4   0   6    4.69    1.09
  -4   0   6    6.36    1.32
  -4   0   5   15.35    2.30
  -4   0   5   12.32    1.81
  -4   0   4    3.06    1.00
  -4   0   4    4.55    1.28
  -4   0   3    2.84    0.94
  -4   0   3    3.59    1.28
  -4   0   2    3.13    0.98
  -4   0   2    5.99    1.51
  -4   0   1    1.81    0.75
  -4   0   1    3.34    1.24
  -4   0   0    3.07    0.99
  -4   0   0    2.59    0.98
  -4   0  -1   23.94    3.26
  -4   0  -1   29.05    3.16
  -4   0  -1   29.85    2.90
  -4   0  -2   14.85    2.60
  -4   0  -2   15.88    2.22
  -4   0  -3    3.14    1.40
  -4   0  -3    2.26    0.85
  -4   0  -4    1.78    0.71
  -4   0  -4    2.00    0.88
  -4   0  -5    1.30    1.08
  -4   0  -6   27.62    3.91
  -4   0  -7    0.66    0.59
   4   0   8    2.92    0.76
  -4   0  -8    3.34    1.14
   4   0   9    3.08    0.67
  -4  -1   9    2.61    0.51
  -4  -1   8    1.17    0.43
  -4  -1   8    0.77    0.38
  -4  -1   7    0.69    0.55
  -4  -1   7    0.63    0.40
  -4  -1   6   30.01    2.77
  -4  -1   6   34.86    3.17
  -4  -1   5   40.40    3.30
  -4  -1   5   46.36    3.92
  -4  -1   4    3.22    0.89
  -4  -1   4    3.40    1.14
  -4  -1   3   56.69    4.67
  -4  -1   3   46.88    3.65
  -4  -1   2    8.24    1.48
  -4  -1   2    8.15    1.82
  -4  -1   1   49.46    4.50
  -4  -1   1   44.69    3.67
  -4  -1   0   63.50    5.05
  -4  -1   0   66.16    4.53
  -4  -1  -1    1.37    0.61
  -4  -1  -1    1.01    0.58
  -4  -1  -1    0.94    0.60
  -4  -1  -1    1.60    0.83
  -4  -1  -2   -0.36    0.40
  -4  -1  -2   -0.03    0.69
  -4  -1  -2   -0.11    0.40
  -4  -1  -3   23.19    3.33
  -4  -1  -3   21.64    2.70
  -4  -1  -4  154.03    8.72
  -4  -1  -5  106.29    7.58
  -4  -1  -6    0.06    0.52
  -4  -1  -7   26.52    3.66
   4   1   8    0.63    0.29
   4   1   8   -0.23    0.27
  -4  -1  -8    0.69    0.62
   4   1   9    2.78    0.74
  -4  -2   9    0.34    0.19
  -4  -2   8    4.82    0.88
  -4  -2   7    0.13    0.29
  -4  -2   7   -0.01    0.32
  -4  -2   6    0.26    0.32
  -4  -2   6    0.31    0.21
  -4  -2   5    0.77    0.70
  -4  -2   5   -0.76    0.60
  -4  -2   4    0.78    0.65
  -4  -2   4    0.03    0.57
  -4  -2   3    8.63    1.81
  -4  -2   3    9.13    1.77
  -4  -2   2    0.46    0.35
  -4  -2   2    0.40    0.35
  -4  -2   1    1.60    0.75
  -4  -2   1    1.46    0.77
  -4  -2   0    0.89    0.65
  -4  -2   0    0.08    0.47
  -4  -2  -1    3.59    1.14
  -4  -2  -1    2.76    1.31
  -4  -2  -1    2.69    1.00
  -4  -2  -2    7.25    1.55
  -4  -2  -2    5.08    1.72
  -4  -2  -2    5.87    1.34
  -4  -2  -3    3.51    1.41
  -4  -2  -3    3.42    0.89
  -4  -2  -3    4.53    1.25
  -4  -2  -4    0.22    0.44
  -4  -2  -4    0.36    0.29
  -4  -2  -5    2.61    1.35
  -4  -2  -5    1.82    0.62
  -4  -2  -6    3.92    1.56
  -4  -2  -7   -0.19    0.78
   4   2   8    1.19    0.51
  -4  -2  -8    1.84    0.79
   4   2   9    0.99    0.49
  -4  -3   8    0.14    0.21
  -4  -3   7   -0.09    0.29
  -4  -3   6   18.29    2.14
  -4  -3   5    9.90    1.81
  -4  -3   5   12.92    1.93
  -4  -3   4    1.39    0.71
  -4  -3   4    1.83    0.87
  -4  -3   3   -0.26    0.39
  -4  -3   3    0.10    0.57
  -4  -3   2   36.91    3.62
  -4  -3   2   53.50    4.41
  -4  -3   1    1.82    0.83
  -4  -3   0    4.40    1.29
  -4  -3  -1    1.01    0.73
  -4  -3  -1    0.27    0.83
  -4  -3  -2    2.63    0.97
  -4  -3  -2    0.77    0.83
  -4  -3  -3   22.63    3.58
  -4  -3  -3   22.67    2.35
  -4  -3  -4    6.44    1.90
  -4  -3  -4    8.58    1.41
  -4  -3  -5    3.85    1.52
  -4  -3  -5    3.99    0.97
  -4  -3  -6    0.30    0.37
  -4  -3  -6    1.07    0.57
  -4  -3  -7   -0.31    0.40
  -4  -3  -7    0.04    0.19
   4   3   8    1.02    0.52
  -4  -3  -8    0.93    0.73
   4   3   9    1.74    0.60
  -4  -4   8    0.24    0.18
  -4  -4   7    0.08    0.18
  -4  -4   6    4.62    1.00
  -4  -4   6    5.34    1.51
  -4  -4   6    4.62    1.01
  -4  -4   5    0.94    0.61
  -4  -4   5    2.28    1.16
  -4  -4   4    6.00    1.34
  -4  -4   4    6.56    1.67
  -4  -4   3    0.85    0.77
  -4  -4   2    0.31    0.43
  -4  -4   1   16.66    2.48
  -4  -4   0   12.28    2.16
  -4  -4  -1    3.57    1.37
  -4  -4  -1   11.58    2.02
  -4  -4  -2    0.39    0.69
  -4  -4  -2    1.33    0.63
  -4  -4  -3    3.56    1.49
  -4  -4  -3    5.62    1.20
  -4  -4  -4    0.13    0.39
  -4  -4  -4    0.38    0.33
  -4  -4  -5    3.59    1.39
  -4  -4  -5    5.31    1.15
  -4  -4  -6   11.51    2.33
  -4  -4  -6   18.34    2.00
  -4  -4  -7    9.47    1.36
   4   4   8    1.18    0.52
   4   4   9    1.50    0.51
  -4  -5   7    2.50    0.56
  -4  -5   6    1.57    0.52
  -4  -5   6    2.29    0.63
  -4  -5   5    3.54    0.81
  -4  -5   5    4.26    1.47
  -4  -5   5    3.75    0.97
  -4  -5   4    0.70    0.47
  -4  -5   4    1.53    0.93
  -4  -5   4    0.07    0.48
  -4  -5   3   -0.55    0.54
  -4  -5   3   -0.46    0.55
  -4  -5   2    7.23    1.36
  -4  -5   2    8.83    1.70
  -4  -5   1    0.35    0.59
  -4  -5   1   -0.81    0.78
  -4  -5   0    6.03    1.41
  -4  -5   0    4.74    1.12
  -4  -5  -1   -0.37    0.63
  -4  -5  -1    0.12    0.38
  -4  -5  -1    0.00    0.18
  -4  -5  -2    4.14    1.02
  -4  -5  -3    5.78    1.21
  -4  -5  -4    3.83    0.96
  -4  -5  -5    3.08    0.89
  -4  -5  -6    9.64    1.38
   4   5   7    0.41    0.30
   4   5   8    0.39    0.33
  -4  -6   6   -0.34    0.35
  -4  -6   5   13.99    1.49
  -4  -6   4    8.44    1.28
  -4  -6   3   13.29    1.77
  -4  -6   2    5.67    1.11
  -4  -6   2    7.16    1.38
  -4  -6   1   -0.31    0.35
  -4  -6   1    0.59    0.48
  -4  -6   1    0.04    0.18
  -4  -6   0    0.98    0.58
  -4  -6   0    0.73    0.42
  -4  -6  -1    1.68    0.79
  -4  -6  -1    0.27    0.38
  -4  -6  -2   23.54    2.21
  -4  -6  -3   21.38    2.10
  -4  -6  -4    1.76    0.58
  -4  -6  -5   12.93    1.55
   4   6   6    6.30    1.09
  -4  -6  -6    6.91    1.08
   4   6   7    2.68    0.65
  -4  -6  -7    4.55    0.81
  -4  -7   5   13.60    1.19
  -4  -7   4    3.35    0.62
  -4  -7   3    3.02    0.81
  -4  -7   2    1.25    0.60
  -4  -7   1    0.23    0.48
  -4  -7   0    0.45    0.25
  -4  -7   0   -0.12    0.15
  -4  -7  -1   -0.60    0.55
  -4  -7  -1    0.06    0.14
  -4  -7  -2    1.56    0.52
  -4  -7  -3    0.57    0.32
  -4  -7  -4   -0.68    0.33
  -4  -7  -5    8.87    1.26
  -4  -7  -6    4.19    0.82
  -4  -8   3   12.72    1.13
  -4  -8   2   -0.24    0.24
  -4  -8   1    0.35    0.22
  -4  -8   0   -0.28    0.36
  -4  -8  -1    0.44    0.28
  -4  -8  -2    1.17    0.46
  -4  -8  -3   -0.25    0.18
  -4  -8  -4    0.69    0.34
  -5   3   2    0.17    0.12
  -5   3   1    0.28    0.23
  -5   3   0    6.62    0.98
  -5   3  -1    0.61    0.33
  -5   3  -2    0.87    0.45
  -5   3  -3    1.97    0.61
  -5   2   4    0.78    0.34
  -5   2   3    0.51    0.19
  -5   2   3    1.49    0.46
  -5   2   2    8.40    1.17
  -5   2   1   11.05    1.38
  -5   2   0    3.84    0.83
  -5   2  -1    6.39    1.27
  -5   2  -1    6.76    1.14
  -5   2  -2   11.49    1.74
  -5   2  -2   12.93    1.59
  -5   2  -3    0.05    0.29
  -5   2  -4    0.76    0.49
  -5   2  -5    2.78    0.73
  -5   1   5    1.46    0.41
  -5   1   4    3.36    0.73
  -5   1   4    4.37    0.82
  -5   1   3    3.61    0.81
  -5   1   3    4.81    0.92
  -5   1   2    6.04    1.03
  -5   1   2    9.33    1.34
  -5   1   1    9.15    1.30
  -5   1   0   24.19    2.18
  -5   1  -1   46.78    3.74
  -5   1  -1   54.94    3.41
  -5   1  -2    2.65    0.92
  -5   1  -2    2.45    0.71
  -5   1  -3    0.21    0.49
  -5   1  -4    0.53    0.50
  -5   1  -5    0.54    0.48
  -5   1  -6    0.49    0.38
  -5   0   5   18.54    1.65
  -5   0   5   16.33    1.33
  -5   0   4   13.90    1.63
  -5   0   4   14.60    1.49
  -5   0   3    6.45    1.19
  -5   0   3    8.00    1.21
  -5   0   2    4.21    1.03
  -5   0   2    3.67    0.86
  -5   0   1    4.13    1.00
  -5   0   0   63.86    3.83
  -5   0  -1   -0.03    0.43
  -5   0  -1    0.49    0.47
  -5   0  -2    5.58    1.48
  -5   0  -2    7.43    1.36
  -5   0  -3    2.96    1.15
  -5   0  -4    2.13    0.75
  -5   0  -5   -0.40    0.61
  -5   0  -6    1.02    0.61
  -5  -1   5   32.06    2.06
  -5  -1   4    3.62    0.75
  -5  -1   4    3.09    0.80
  -5  -1   3    0.05    0.25
  -5  -1   3   -0.39    0.41
  -5  -1   3   -0.05    0.18
  -5  -1   2    1.01    0.57
  -5  -1   2    0.84    0.43
  -5  -1   1    0.07    0.34
  -5  -1   1   -0.02    0.28
  -5  -1   0   21.54    2.32
  -5  -1   0   22.48    2.15
  -5  -1  -1    0.08    0.41
  -5  -1  -1    0.40    0.41
  -5  -1  -2   25.39    3.17
  -5  -1  -2   34.02    3.00
  -5  -1  -3    0.08    0.56
  -5  -1  -4   49.03    4.61
  -5  -1  -5   30.44    3.48
  -5  -1  -6    0.67    0.54
  -5  -1  -7    0.16    0.18
  -5  -2   5    2.26    0.58
  -5  -2   4    3.70    0.81
  -5  -2   3    4.37    0.96
  -5  -2   2    2.14    0.63
  -5  -2   1    0.99    0.54
  -5  -2   0   20.17    2.12
  -5  -2  -1    0.43    0.22
  -5  -2  -1    0.47    0.38
  -5  -2  -2   -0.23    0.38
  -5  -2  -2   -0.17    0.26
  -5  -2  -3    0.87    0.71
  -5  -2  -3   -0.01    0.26
  -5  -2  -4    0.05    0.44
  -5  -2  -5    9.40    1.93
  -5  -2  -6    0.19    0.25
  -5  -2  -7    0.53    0.40
  -5  -3   5    0.16    0.26
  -5  -3   5    0.24    0.18
  -5  -3   4   15.46    1.65
  -5  -3   3    0.76    0.47
  -5  -3   2    8.03    1.41
  -5  -3   1   21.24    2.28
  -5  -3   0    0.66    0.29
  -5  -3  -1   -0.49    0.32
  -5  -3  -2    2.97    0.96
  -5  -3  -2    3.19    0.74
  -5  -3  -3   32.75    3.45
  -5  -3  -3   34.11    2.29
  -5  -3  -4   32.39    3.38
  -5  -3  -4   33.85    2.16
  -5  -3  -5   -0.62    0.57
  -5  -3  -5   -0.03    0.18
  -5  -3  -6    4.73    1.14
  -5  -4   5    0.18    0.22
  -5  -4   4    4.11    0.80
  -5  -4   4    3.08    0.65
  -5  -4   3   -0.19    0.21
  -5  -4   3   -0.87    0.53
  -5  -4   2    0.31    0.42
  -5  -4   1    0.40    0.41
  -5  -4   0    0.87    0.33
  -5  -4   0    0.87    0.49
  -5  -4  -1    0.58    0.30
  -5  -4  -2    1.30    0.47
  -5  -4  -3    0.47    0.33
  -5  -4  -4    1.62    0.50
  -5  -4  -5    0.34    0.21
   5   4   6    0.31    0.34
  -5  -5   4    0.32    0.22
  -5  -5   3    6.69    0.92
  -5  -5   3    6.74    0.97
  -5  -5   2    0.65    0.34
  -5  -5   2   -0.03    0.12
  -5  -5   1    2.86    0.66
  -5  -5   1    1.46    0.47
  -5  -5   0    0.83    0.43
  -5  -5   0    0.19    0.17
  -5  -5  -1    1.03    0.43
  -5  -5  -2    9.27    1.23
  -5  -5  -3    4.51    0.84
  -5  -5  -4    4.06    0.75
  -5  -5  -5    0.29    0.17
  -5  -6   2    1.57    0.42
  -5  -6   1    1.49    0.44
  -5  -6   1    0.39    0.21
  -5  -6   0    0.11    0.10
  -5  -6  -1    0.18    0.19
  -5  -6  -2    2.45    0.54
  -5  -6  -3   -0.07    0.12
   0   0   0    0.00    0.00


TITL KMA_MN114A3_scale in P-1
REM P-1 (#2 in standard setting)
CELL 1.54184   4.644612   8.455864  10.710020  89.4218  86.9737  80.4889
ZERR    2.00   0.000787   0.002129   0.001632   0.0180   0.0133   0.0182
LATT  1
SFAC C H N O
UNIT 16.00 18.00 2.00 6.00
TREF
HKLF 4
END
_computing_structure_solution     'SHELXT 2014/5 (Sheldrick, 2014)'
;
_shelx_hkl_checksum              10519
_ins_header
;
TITL KMA_MN114A3_scale in P-1 
REM P-1 (#2 in standard setting)
CELL 1.54184   4.644612   8.455864  10.710020  89.4218  86.9737  80.4889
ZERR    2.00   0.000787   0.002129   0.001632   0.0180   0.0133   0.0182
LATT  1
SFAC C H N O
UNIT 16.00 18.00 2.00 6.00
TREF
HKLF 4
END
;
_olex2_submission_special_instructions 'No special instructions were received'
_oxdiff_exptl_absorpt_empirical_details
;
Empirical correction (ABSPACK) includes:
- Absorption correction using spherical harmonics
- Frame scaling
- Detector area scaling
;
_oxdiff_exptl_absorpt_empirical_full_max 1.688
_oxdiff_exptl_absorpt_empirical_full_min 0.603
loop_
_space_group_symop_operation_xyz
'x, y, z'
'-x, -y, -z'
loop_
_atom_site_label
_atom_site_type_symbol
_atom_site_fract_x
_atom_site_fract_y
_atom_site_fract_z
_atom_site_U_iso_or_equiv
_atom_site_adp_type
_atom_site_occupancy
_atom_site_site_symmetry_order
_atom_site_calc_flag
_atom_site_refinement_flags_posn
_atom_site_refinement_flags_adp
_atom_site_refinement_flags_occupancy
_atom_site_disorder_assembly
_atom_site_disorder_group
C1 C 0.3489(6) 0.4048(3) 0.6576(3) 0.0405(7) Uani 1 1 d . . . . .
C2 C 0.4845(6) 0.2812(3) 0.5661(3) 0.0396(7) Uani 1 1 d . . . . .
C3 C 0.7104(6) 0.1918(4) 0.6202(3) 0.0424(7) Uani 1 1 d . . . . .
H3 H 0.835136 0.105461 0.583578 0.051 Uiso 1 1 calc R . . . .
C4 C 0.7270(7) 0.2518(3) 0.7439(3) 0.0416(7) Uani 1 1 d . . . . .
C5 C 0.9121(8) 0.2044(4) 0.8323(3) 0.0487(8) Uani 1 1 d . . . . .
H5 H 1.055604 0.115873 0.814502 0.058 Uiso 1 1 calc R . . . .
C6 C 0.9110(9) 0.2798(5) 0.9572(4) 0.0607(10) Uani 1 1 d . . . . .
H6A H 1.079304 0.331570 0.961227 0.091 Uiso 1 1 calc GR . . . .
H6B H 0.916172 0.198860 1.020931 0.091 Uiso 1 1 calc GR . . . .
H6C H 0.736744 0.357688 0.970124 0.091 Uiso 1 1 calc GR . . . .
C7 C 0.5011(6) 0.1857(3) 0.3527(3) 0.0410(7) Uani 1 1 d . . . . .
C8 C 0.3492(7) 0.2086(4) 0.2336(3) 0.0477(8) Uani 1 1 d . . . . .
H8A H 0.379878 0.308384 0.196029 0.072 Uiso 1 1 calc GR . . . .
H8B H 0.143639 0.209978 0.250190 0.072 Uiso 1 1 calc GR . . . .
H8C H 0.425902 0.122053 0.177616 0.072 Uiso 1 1 calc GR . . . .
N1 N 0.3696(5) 0.2792(3) 0.4508(2) 0.0403(6) Uani 1 1 d . . . . .
H1 H 0.205592 0.340040 0.439227 0.048 Uiso 1 1 calc R . . . .
O1 O 0.4986(5) 0.3832(2) 0.7634(2) 0.0436(6) Uani 1 1 d . . . . .
O2 O 0.1404(5) 0.5108(3) 0.6469(2) 0.0466(6) Uani 1 1 d . . . . .
O3 O 0.7320(5) 0.0930(3) 0.3642(2) 0.0499(6) Uani 1 1 d . . . . .
loop_
_atom_site_aniso_label
_atom_site_aniso_U_11
_atom_site_aniso_U_22
_atom_site_aniso_U_33
_atom_site_aniso_U_23
_atom_site_aniso_U_13
_atom_site_aniso_U_12
C1 0.0365(14) 0.0331(13) 0.0498(16) 0.0019(11) -0.0013(12) -0.0003(11)
C2 0.0321(13) 0.0334(13) 0.0516(17) -0.0013(11) 0.0006(12) -0.0012(10)
C3 0.0368(14) 0.0371(14) 0.0511(16) 0.0001(11) -0.0036(12) 0.0013(11)
C4 0.0360(14) 0.0342(14) 0.0524(17) 0.0030(11) -0.0024(12) 0.0006(11)
C5 0.0453(17) 0.0457(16) 0.0528(18) 0.0034(13) -0.0052(13) -0.0004(13)
C6 0.056(2) 0.071(2) 0.053(2) 0.0031(17) -0.0069(16) -0.0016(18)
C7 0.0338(13) 0.0346(14) 0.0530(17) -0.0053(11) -0.0001(12) -0.0010(10)
C8 0.0420(16) 0.0476(17) 0.0498(17) -0.0037(12) -0.0009(13) 0.0038(12)
N1 0.0318(11) 0.0376(12) 0.0483(14) -0.0027(10) -0.0008(10) 0.0033(9)
O1 0.0419(12) 0.0370(11) 0.0493(12) -0.0016(8) -0.0024(9) 0.0010(9)
O2 0.0394(11) 0.0398(11) 0.0554(13) 0.0003(9) -0.0021(9) 0.0085(9)
O3 0.0398(12) 0.0448(12) 0.0603(14) -0.0073(10) -0.0041(10) 0.0083(9)
loop_
_atom_type_symbol
_atom_type_description
_atom_type_scat_dispersion_real
_atom_type_scat_dispersion_imag
_atom_type_scat_source
C C 0.0181 0.0091 'International Tables Vol C Tables 4.2.6.8 and 6.1.1.4'
H H 0.0000 0.0000 'International Tables Vol C Tables 4.2.6.8 and 6.1.1.4'
N N 0.0311 0.0180 'International Tables Vol C Tables 4.2.6.8 and 6.1.1.4'
O O 0.0492 0.0322 'International Tables Vol C Tables 4.2.6.8 and 6.1.1.4'
loop_
_exptl_crystal_face_index_h
_exptl_crystal_face_index_k
_exptl_crystal_face_index_l
_exptl_crystal_face_perp_dist
0 -5 3 0.0643
0 5 -3 0.0391
-3 -1 -1 0.1573
0 -2 -6 0.0298
0 2 6 0.0298
-2 -5 2 0.1157
3 4 -1 0.0935
loop_
_geom_angle_atom_site_label_1
_geom_angle_atom_site_label_2
_geom_angle_atom_site_label_3
_geom_angle
_geom_angle_site_symmetry_1
_geom_angle_site_symmetry_3
_geom_angle_publ_flag
O1 C1 C2 108.3(2) . . ?
O2 C1 C2 129.2(3) . . ?
O2 C1 O1 122.5(3) . . ?
C3 C2 C1 107.3(3) . . ?
C3 C2 N1 133.8(3) . . ?
N1 C2 C1 118.9(3) . . ?
C2 C3 H3 125.7 . . ?
C2 C3 C4 108.6(3) . . ?
C4 C3 H3 125.7 . . ?
C5 C4 C3 131.0(3) . . ?
C5 C4 O1 121.0(3) . . ?
O1 C4 C3 108.0(3) . . ?
C4 C5 H5 117.0 . . ?
C4 C5 C6 125.9(3) . . ?
C6 C5 H5 117.0 . . ?
C5 C6 H6A 109.5 . . ?
C5 C6 H6B 109.5 . . ?
C5 C6 H6C 109.5 . . ?
H6A C6 H6B 109.5 . . ?
H6A C6 H6C 109.5 . . ?
H6B C6 H6C 109.5 . . ?
N1 C7 C8 115.3(3) . . ?
O3 C7 C8 123.4(3) . . ?
O3 C7 N1 121.2(3) . . ?
C7 C8 H8A 109.5 . . ?
C7 C8 H8B 109.5 . . ?
C7 C8 H8C 109.5 . . ?
H8A C8 H8B 109.5 . . ?
H8A C8 H8C 109.5 . . ?
H8B C8 H8C 109.5 . . ?
C2 N1 C7 123.9(3) . . ?
C2 N1 H1 118.0 . . ?
C7 N1 H1 118.0 . . ?
C1 O1 C4 107.9(2) . . ?
loop_
_geom_bond_atom_site_label_1
_geom_bond_atom_site_label_2
_geom_bond_distance
_geom_bond_site_symmetry_2
_geom_bond_publ_flag
C1 C2 1.479(4) . ?
C1 O1 1.356(4) . ?
C1 O2 1.215(4) . ?
C2 C3 1.342(4) . ?
C2 N1 1.372(4) . ?
C3 H3 0.9300 . ?
C3 C4 1.434(5) . ?
C4 C5 1.327(5) . ?
C4 O1 1.413(3) . ?
C5 H5 0.9300 . ?
C5 C6 1.488(5) . ?
C6 H6A 0.9600 . ?
C6 H6B 0.9600 . ?
C6 H6C 0.9600 . ?
C7 C8 1.485(5) . ?
C7 N1 1.375(4) . ?
C7 O3 1.230(4) . ?
C8 H8A 0.9600 . ?
C8 H8B 0.9600 . ?
C8 H8C 0.9600 . ?
N1 H1 0.8600 . ?
loop_
_exptl_oxdiff_crystal_face_indexfrac_h
_exptl_oxdiff_crystal_face_indexfrac_k
_exptl_oxdiff_crystal_face_indexfrac_l
_exptl_oxdiff_crystal_face_x
_exptl_oxdiff_crystal_face_y
_exptl_oxdiff_crystal_face_z
0.0092 -4.9918 2.9994 -0.0832 -0.3387 0.9578
-0.0092 4.9918 -2.9994 0.0832 0.3387 -0.9578
-3.0022 -0.9895 -0.9691 0.2026 0.9259 0.3179
-0.0089 -2.0044 -6.0087 -0.8947 0.2900 -0.0101
0.0089 2.0044 6.0087 0.8947 -0.2900 0.0101
-1.9934 -4.9858 2.0202 0.0709 0.3198 1.0456
2.9963 3.9844 -1.0308 -0.1766 -0.7109 -0.9034
loop_
_hkl_oxdiff_h
_hkl_oxdiff_k
_hkl_oxdiff_l
_hkl_oxdiff_f2
_hkl_oxdiff_sig
_hkl_oxdiff_ba
0 0 -1 101494. 746.762 2
0 0 -1 101144. 767.918 3
0 0 2 36415.4 557.136 7
0 0 2 37229.0 632.606 9
0 0 -2 38229.5 690.211 3
0 0 -2 37116.7 664.052 2
0 0 3 39987.2 800.364 9
0 0 -3 39130.4 908.976 3
0 0 3 38530.3 697.402 7
0 0 -3 39505.5 845.887 2
0 0 4 4377.44 314.099 9
0 0 4 4216.68 269.989 7
0 0 4 3314.96 200.523 10
0 0 -4 4405.77 337.873 2
0 0 4 4538.47 340.089 8
0 0 5 33581.6 1000.06 9
0 0 5 34589.9 1077.31 8
0 0 6 -98.1322 69.9874 8
0 0 7 10573.7 797.495 8
0 0 8 2285.79 419.616 8
0 0 9 1778.28 235.518 30
0 0 9 1328.98 218.560 22
0 0 10 14820.9 679.108 30
0 0 11 758.158 149.932 30
0 0 12 -18.9118 20.5606 30
0 0 13 2.25930 15.2874 30
0 -1 12 34.7139 27.0704 30
0 -1 11 546.458 109.008 32
0 -1 11 659.638 135.802 30
0 -1 10 862.892 170.251 30
0 -1 10 680.490 135.595 32
0 -1 9 1783.05 240.279 30
0 -1 8 4519.05 636.643 11
0 -1 8 3647.71 528.058 8
0 -1 7 1333.96 282.451 8
0 -1 7 1687.86 358.253 11
0 -1 6 919.138 217.300 8
0 -1 6 943.483 189.675 7
0 -1 5 721.145 140.365 7
0 1 -5 363.091 111.738 2
0 1 -5 479.047 133.249 3
0 -1 5 623.517 149.753 8
0 1 -4 5972.20 431.328 3
0 -1 4 5843.32 382.800 8
0 -1 4 5910.20 365.226 7
0 1 -4 5736.24 366.249 2
0 -1 3 1885.33 187.496 7
0 -1 3 1667.16 183.735 8
0 1 -3 1859.37 175.774 2
0 1 -2 5428.71 260.548 2
0 1 -1 12763.6 310.775 2
0 -1 1 13443.8 379.466 11
0 1 0 14960.6 266.018 9
0 -1 0 15754.9 276.273 7
0 -1 0 15458.5 327.118 6
0 1 1 20739.2 353.818 8
0 1 1 21036.0 422.905 9
0 1 2 21815.0 534.538 8
0 1 2 21416.6 236.316 7
0 1 3 3432.58 265.162 8
0 1 3 3305.47 154.581 7
0 1 4 2927.17 272.384 9
0 1 4 2934.07 196.144 7
0 1 4 3382.05 305.057 8
0 1 5 5602.02 446.132 8
0 1 5 5428.16 418.557 9
0 1 6 1557.25 281.532 8
0 1 6 1492.27 242.597 9
0 1 7 -11.2084 35.6765 8
0 1 8 5412.08 638.456 8
0 1 9 2151.28 295.112 22
0 1 9 2534.98 276.699 30
0 1 10 974.038 194.108 22
0 1 10 1025.39 176.615 30
0 1 11 -2.74833 31.2245 30
0 1 11 -46.7920 40.2351 22
0 1 12 212.619 75.0623 30
0 1 12 187.326 61.2320 22
0 1 13 743.209 96.9554 30
0 -2 13 40.3168 27.0332 26
0 -2 12 6.78643 24.7941 32
0 -2 11 681.668 127.541 32
0 -2 11 491.427 108.277 30
0 -2 10 3830.47 346.772 30
0 -2 10 4297.29 347.479 32
0 -2 9 2761.56 316.302 24
0 -2 9 2948.84 304.388 30
0 -2 8 777.765 251.649 11
0 -2 8 746.304 238.569 8
0 -2 7 6454.30 624.346 8
0 -2 7 6905.85 622.889 7
0 -2 7 7486.54 713.388 11
0 -2 6 29419.7 1284.27 11
0 -2 6 29226.8 1123.76 7
0 2 -6 26145.0 1142.99 3
0 -2 6 28158.1 1158.01 8
0 -2 5 1753.81 248.736 8
0 -2 5 2011.64 261.113 7
0 2 -5 1181.23 199.845 2
0 2 -5 1238.34 226.259 3
0 -2 5 2093.97 307.556 11
0 2 -4 2852.51 264.950 2
0 -2 4 2151.82 246.801 8
0 -2 4 2294.24 262.667 7
0 -2 4 2014.01 263.513 11
0 -2 3 4496.15 353.536 11
0 -2 3 4152.94 293.752 8
0 2 -3 4535.58 295.693 2
0 -2 3 4217.32 321.074 7
0 -2 2 25476.2 583.297 8
0 2 -2 26908.1 643.102 2
0 2 -2 25243.5 427.739 1
0 -2 2 27673.0 722.017 4
0 -2 2 25975.5 731.700 11
0 -2 1 61669.1 1073.58 11
0 -2 1 61834.8 657.758 8
0 -2 1 63998.5 975.361 7
0 -2 1 63280.2 1021.30 4
0 -2 0 142990. 1466.18 6
0 2 0 145840. 1135.74 9
0 -2 0 144258. 1229.71 7
0 2 1 71527.3 980.072 9
0 -2 -1 70764.9 703.433 7
0 2 1 70057.7 747.581 8
0 -2 -1 70331.5 941.223 5
0 2 2 2568.60 191.723 8
0 2 2 2552.16 225.878 9
0 2 3 45074.6 1023.62 8
0 2 3 43172.3 1028.38 9
0 2 4 46782.1 1194.27 9
0 2 4 48990.6 1229.88 8
0 2 5 5538.70 460.861 9
0 2 5 6089.34 504.502 8
0 2 6 13.5231 33.8311 8
0 2 6 36.2025 53.1895 9
0 2 7 1149.69 275.777 8
0 2 7 981.837 243.199 9
0 2 8 5046.48 611.506 8
0 2 9 2843.80 293.483 30
0 2 9 2609.04 324.748 22
0 2 10 -21.9874 32.2375 30
0 2 10 1.85190 40.7205 22
0 2 11 1041.48 183.415 22
0 2 11 866.818 148.187 30
0 2 12 51.6074 38.8472 22
0 2 12 -1.23880 21.7557 30
0 -3 12 125.353 38.8637 32
0 -3 12 139.582 64.5453 26
0 -3 11 185.971 68.7849 32
0 -3 10 903.463 162.401 32
0 -3 9 479.175 130.635 24
0 -3 8 331.764 117.984 24
0 -3 7 2637.11 417.235 7
0 -3 7 2996.22 456.135 11
0 3 -6 1146.22 273.066 3
0 -3 6 2070.20 333.825 8
0 -3 6 2319.75 371.501 11
0 -3 6 2420.59 357.701 7
0 -3 5 5278.76 481.312 4
0 -3 5 6238.59 507.221 7
0 -3 5 6209.19 560.898 11
0 -3 5 5923.28 491.468 8
0 -3 4 34112.0 1186.07 11
0 3 -4 29400.1 943.704 2
0 -3 4 29085.4 1056.36 4
0 -3 4 31197.8 990.409 8
0 -3 4 32039.0 1040.67 7
0 3 -3 -18.5224 30.2275 2
0 -3 3 6.26243 40.6300 11
0 -3 3 -8.33167 43.4290 7
0 -3 3 17.2454 27.8916 8
0 -3 3 -39.7159 53.4551 4
0 -3 2 9263.16 546.848 6
0 -3 2 8979.32 547.089 11
0 -3 2 7912.66 474.400 4
0 3 -2 7743.40 439.366 2
0 -3 2 8006.12 477.775 7
0 -3 1 7912.17 435.081 7
0 -3 1 8278.17 456.515 4
0 -3 1 8743.45 507.441 6
0 3 -1 6872.88 271.949 9
0 3 0 15538.1 477.766 9
0 -3 0 16322.7 641.787 6
0 -3 0 17499.0 585.330 7
0 -3 -1 2055.59 173.334 7
0 3 1 2228.70 209.121 9
0 -3 -1 1809.61 206.871 6
0 3 2 28965.5 843.554 9
0 -3 -2 28566.5 760.888 5
0 3 3 45792.8 1118.77 8
0 3 3 44692.9 1166.46 9
0 3 4 13899.8 725.770 9
0 3 4 15178.3 753.022 8
0 3 5 806.129 202.071 9
0 3 5 1013.96 231.472 8
0 3 6 10349.8 754.137 9
0 3 6 11111.4 798.501 8
0 3 6 10635.4 823.070 10
0 3 7 3950.37 514.408 9
0 3 8 12761.0 675.508 22
0 3 8 12407.6 595.286 30
0 3 9 376.689 121.474 30
0 3 9 361.765 115.629 22
0 3 10 1676.44 246.772 22
0 3 10 1455.05 206.299 30
0 3 11 767.707 146.507 22
0 3 11 738.975 130.506 30
0 3 12 289.540 76.7472 22
0 3 12 283.047 69.4504 30
0 -4 12 -13.9330 15.4386 32
0 -4 12 31.2875 29.3149 26
0 -4 11 396.766 84.6861 32
0 -4 11 267.141 96.4213 26
0 -4 10 3133.92 282.670 32
0 -4 9 31.7399 50.4669 24
0 -4 8 421.457 134.324 24
0 -4 7 1024.16 227.363 17
0 -4 7 1122.15 200.287 24
0 -4 6 254.151 158.173 11
0 -4 6 123.931 81.8391 7
0 -4 5 3685.83 447.505 4
0 -4 5 4182.71 482.736 7
0 -4 4 742.502 221.151 11
0 -4 4 1214.00 245.371 4
0 -4 4 1050.34 229.330 7
0 -4 3 273.325 112.347 7
0 -4 3 302.163 114.092 4
0 4 -2 236.524 94.9735 2
0 -4 2 484.826 135.057 7
0 -4 2 562.080 146.563 6
0 -4 1 70.0459 29.1152 7
0 -4 1 -22.0521 49.6174 6
0 -4 0 7504.04 509.678 7
0 -4 0 7834.70 536.774 6
0 4 1 5935.49 398.130 9
0 -4 -1 5986.56 452.917 6
0 -4 -2 9673.38 569.148 6
0 4 2 10519.1 580.771 9
0 4 3 2355.64 299.448 9
0 -4 -3 1962.56 263.401 6
0 4 4 2762.01 348.102 9
0 4 5 2186.38 336.685 9
0 4 6 64.6486 66.0986 9
0 4 6 184.356 114.534 10
0 4 7 748.317 136.218 30
0 4 7 1263.15 217.133 22
0 4 8 552.544 133.586 30
0 4 8 831.804 175.773 22
0 4 9 5.29921 52.6995 22
0 4 9 33.6818 24.5365 30
0 4 10 133.159 65.9764 30
0 4 10 149.214 64.2189 22
0 4 11 55.3868 34.0074 22
0 4 11 -10.5392 20.7604 30
0 4 12 44.5977 27.5609 22
0 -5 11 9.28598 28.4969 26
0 -5 11 -23.1802 26.2188 32
0 -5 10 48.7851 44.8854 32
0 -5 10 2.03274 29.4396 26
0 -5 9 31.0301 28.2240 32
0 -5 9 -0.47342 37.0785 24
0 -5 9 10.8675 39.7598 26
0 -5 8 156.575 78.4844 24
0 -5 8 226.045 94.3874 26
0 -5 7 782.840 174.781 24
0 -5 7 1048.26 220.808 26
0 -5 7 665.220 185.446 17
0 -5 6 121.221 71.3987 26
0 -5 6 111.466 69.4467 24
0 -5 6 105.356 75.7462 17
0 -5 6 150.769 99.5351 25
0 -5 5 22.6842 49.5900 7
0 -5 4 112.795 98.5715 7
0 -5 3 167.770 94.2701 7
0 -5 2 25086.7 1217.85 6
0 -5 2 22938.2 1074.87 7
0 -5 1 3553.34 454.887 6
0 5 -1 3663.75 471.229 10
0 -5 1 2999.58 382.146 7
0 -5 0 49.6427 66.4808 6
0 -5 -1 5970.16 532.564 6
0 -5 -2 12167.5 753.697 6
0 5 3 949.904 215.011 9
0 -5 -3 1564.26 269.427 6
0 5 4 1871.78 311.378 9
0 5 5 337.257 174.536 10
0 5 5 236.089 116.937 9
0 -5 -6 138.193 74.8228 33
0 5 7 318.500 101.599 22
0 -5 -7 308.694 114.186 33
0 5 8 3490.22 340.015 22
0 5 9 10.7525 36.7458 22
0 5 10 64.1349 51.6031 22
0 5 10 31.1753 36.0964 21
0 5 11 922.507 120.867 22
0 -6 10 958.576 115.501 32
0 -6 10 744.257 114.367 26
0 -6 9 477.071 112.600 26
0 -6 9 612.792 117.665 32
0 -6 8 266.796 92.9305 32
0 -6 8 158.284 68.0092 26
0 -6 8 -24.1362 79.1101 31
0 -6 7 118.690 53.2157 24
0 -6 7 92.6323 87.8136 17
0 -6 7 170.950 102.289 26
0 -6 6 604.288 170.880 26
0 -6 6 487.781 150.044 17
0 -6 6 441.056 124.197 24
0 -6 5 1443.27 226.287 25
0 -6 5 1467.93 263.740 17
0 -6 5 1351.65 220.879 24
0 -6 4 308.678 108.854 24
0 -6 4 320.156 153.268 18
0 -6 4 340.650 94.9743 25
0 -6 3 87.1656 91.8199 7
0 -6 1 1535.25 324.967 6
0 6 0 2618.07 470.179 10
0 -6 0 2531.69 416.404 6
0 -6 -1 3020.15 445.840 6
0 6 1 4383.33 628.245 10
0 6 2 96.9506 129.369 10
0 6 3 42.4492 67.9028 10
0 -6 -4 3775.82 298.385 33
0 -6 -5 799.828 172.957 15
0 -6 -5 893.604 155.601 33
0 -6 -6 1087.35 192.858 15
0 -6 -6 1407.76 204.451 33
0 -6 -7 181.586 77.6930 33
0 -6 -8 64.6465 31.4620 33
0 6 9 -14.6925 18.8292 22
0 6 10 22.9961 31.3006 22
0 6 10 3.79287 15.1760 21
0 -7 8 3264.86 247.215 31
0 -7 7 815.051 173.789 17
0 -7 6 178.852 85.2977 17
0 -7 5 117.710 88.5997 25
0 -7 5 44.1190 65.0047 17
0 -7 5 -30.5588 41.2118 24
0 -7 4 2928.73 375.646 17
0 -7 4 2487.19 276.528 13
0 -7 4 2549.45 288.492 25
0 -7 4 2351.38 288.711 24
0 -7 3 4633.75 406.461 24
0 -7 3 5984.80 601.694 18
0 -7 3 5291.74 384.016 13
0 -7 3 5072.38 392.570 25
0 -7 2 3378.62 353.245 24
0 -7 2 4174.77 488.411 18
0 -7 2 3888.54 322.310 13
0 -7 2 3976.38 343.947 25
0 -7 1 2737.42 275.649 13
0 -7 1 2817.38 388.849 18
0 -7 1 2401.55 279.985 15
0 -7 1 1972.95 269.585 24
0 -7 0 1448.36 202.259 13
0 -7 0 1203.52 200.698 15
0 -7 -1 4469.00 399.763 15
0 -7 -1 3508.61 317.126 27
0 -7 -1 3690.64 314.921 33
0 -7 -2 6212.56 418.650 27
0 -7 -2 6547.70 496.533 15
0 -7 -2 6967.96 432.958 33
0 -7 -3 582.172 155.998 15
0 -7 -3 605.777 131.703 33
0 -7 -3 439.982 102.306 27
0 -7 -4 133.568 81.7675 33
0 -7 -4 51.2193 57.7733 15
0 -7 -4 -36.3219 25.2630 27
0 -7 -5 2737.30 272.138 33
0 -7 -5 2586.02 297.849 15
0 -7 -6 430.833 125.831 15
0 -7 -6 523.836 122.337 33
0 -7 -7 2859.41 258.526 33
0 -7 -7 2240.41 246.698 15
0 -7 -8 322.490 78.0550 33
0 7 9 48.1884 27.9016 21
0 -8 8 369.694 68.4962 31
0 -8 7 -135.222 65.7090 31
0 -8 6 2054.29 273.719 17
0 -8 5 70.8028 75.0692 17
0 -8 4 154.198 75.0589 25
0 -8 4 150.983 75.8956 17
0 -8 3 -25.0414 50.5994 24
0 -8 3 15.7974 39.1495 25
0 -8 2 175.088 89.4148 15
0 -8 2 236.644 89.1597 25
0 -8 2 275.301 107.560 24
0 -8 1 1771.34 253.300 24
0 -8 1 1289.72 268.307 18
0 -8 1 1879.06 231.296 25
0 -8 1 1349.98 221.176 15
0 -8 0 194.411 92.7456 15
0 -8 0 197.418 88.4561 24
0 -8 -1 2299.66 245.227 33
0 -8 -1 3141.14 329.355 15
0 -8 -2 4096.94 326.007 33
0 -8 -2 3999.17 364.345 15
0 -8 -3 177.006 78.8706 33
0 -8 -3 32.8052 60.5067 15
0 -8 -4 4564.21 339.921 33
0 -8 -4 4179.64 364.695 15
0 -8 -5 437.902 105.031 33
0 -8 -5 181.759 82.7965 15
0 -8 -6 216.952 67.8770 15
0 -8 -6 102.593 32.7520 33
0 -8 -7 16.2777 41.3018 33
0 8 8 113.859 42.1867 21
0 -9 6 13.3480 27.5963 17
0 -9 6 -113.095 48.0610 31
0 -9 5 395.891 76.3033 31
0 -9 5 658.151 137.986 17
0 -9 4 -15.4249 41.4060 17
0 -9 3 153.715 90.9855 17
0 -9 3 195.759 79.9097 25
0 -9 2 168.316 103.811 17
0 -9 2 173.077 63.5913 25
0 -9 1 338.390 92.8557 24
0 -9 1 503.839 104.794 25
0 -9 1 415.766 110.320 15
0 -9 0 3084.52 286.996 15
0 -9 0 2931.28 276.667 24
0 -9 0 3044.37 264.282 25
0 -9 -1 1989.47 238.536 15
0 -9 -1 1704.42 195.518 25
0 -9 -1 1656.87 202.147 24
0 -9 -2 67.6522 40.1306 33
0 -9 -2 67.5889 47.6846 24
0 -9 -2 119.144 64.2587 15
0 -9 -2 134.883 48.6670 25
0 -9 -3 1803.37 213.043 15
0 -9 -3 1480.96 170.573 33
0 -9 -4 78.7644 58.5327 15
0 -9 -4 2.30992 35.2179 33
0 -9 -5 403.257 80.2715 33
0 -9 -5 469.011 97.3986 15
0 9 6 32.4514 28.1656 21
0 -9 -6 13.4630 25.8264 15
0 -10 3 14.9743 19.2889 17
0 -10 2 21.1148 28.5444 17
0 -10 1 423.546 90.7912 17
0 -10 1 508.824 86.2497 25
0 -10 0 3312.81 256.386 17
0 -10 0 2784.91 188.268 25
0 -10 -1 697.633 114.565 17
0 -10 -2 740.349 113.741 15
0 -10 -2 566.657 101.905 17
0 -10 -3 1229.41 137.984 15
1 -9 -5 182.070 56.8783 24
1 -9 -4 118.100 50.7653 24
1 -9 -3 467.548 103.405 24
1 -9 -2 381.188 96.2413 24
1 -9 -1 1631.93 209.153 24
1 -9 0 824.212 145.892 24
1 -9 1 143.456 69.6172 24
1 -9 2 262.874 82.3869 24
1 -9 2 199.238 76.3042 17
1 -9 3 136.455 61.4157 17
1 -9 3 155.373 57.0150 24
1 -9 4 592.690 96.9757 24
1 -9 4 575.611 112.841 17
-1 8 7 284.751 67.9871 21
-1 8 6 194.119 68.3813 21
-1 8 5 700.565 127.991 21
1 -8 -5 811.403 128.954 15
1 -8 -4 2514.99 243.629 15
-1 8 4 2295.88 238.947 21
1 -8 -3 2298.77 249.901 15
1 -8 -2 1666.50 219.420 15
1 -8 -1 10848.1 606.256 24
1 -8 -1 10774.0 575.847 15
1 -8 0 2810.10 312.262 24
1 -8 0 2551.64 341.017 18
1 -8 0 2529.78 309.117 15
1 -8 1 434.606 116.504 24
1 -8 1 391.079 143.008 18
1 -8 2 7.17186 60.8215 18
1 -8 2 -50.6370 45.9393 24
1 -8 3 4256.65 378.155 24
1 -8 3 4103.62 448.189 18
1 -8 4 6731.72 444.044 24
1 -8 4 6186.46 467.690 17
1 -8 5 754.452 138.553 24
1 -8 5 616.796 139.613 17
1 -8 6 2564.05 226.655 24
1 -8 6 2204.96 226.103 17
1 -8 7 325.813 66.4314 24
1 -8 7 158.708 32.3478 31
-1 7 9 69.3350 31.1317 21
-1 7 8 111.666 50.8487 21
-1 7 7 126.090 59.1893 21
-1 7 6 522.738 121.502 21
1 -7 -5 47.7487 56.5040 15
1 -7 -5 -16.4463 50.4351 33
1 -7 -4 3697.26 297.770 33
1 -7 -4 3414.03 308.755 15
1 -7 -3 186.452 68.7019 15
1 -7 -3 141.593 61.7759 33
1 -7 -2 4470.31 342.954 33
1 -7 -2 5020.90 402.443 15
1 -7 -1 9231.37 559.578 15
1 -7 -1 7607.52 451.256 33
1 -7 -1 8048.23 605.127 18
1 -7 0 853.098 185.285 15
1 -7 0 703.512 184.036 18
1 -7 1 47.7336 45.2517 18
1 -7 1 130.770 82.5878 24
1 -7 1 38.5933 64.1604 15
1 -7 2 109.923 47.7414 18
1 -7 2 100.503 87.2256 15
1 -7 2 46.1959 59.8150 24
1 -7 3 146.995 80.4744 18
1 -7 3 45.1883 46.4442 24
1 -7 3 164.025 101.193 25
1 -7 4 2388.16 292.861 24
1 -7 4 2285.38 376.023 18
1 -7 5 18.9143 42.1454 24
1 -7 5 160.689 97.4733 17
1 -7 5 59.7703 117.727 18
1 -7 6 1557.99 214.613 24
1 -7 6 1392.61 217.965 17
1 -7 7 266.765 74.5510 24
1 -7 8 1787.02 181.302 24
1 -7 8 1541.85 141.146 31
-1 6 10 408.773 74.1328 21
-1 6 9 85.5597 47.5573 21
-1 6 8 95.3735 49.2066 21
-1 6 7 214.194 80.1106 21
1 -6 -6 136.720 64.7761 33
1 -6 -5 5806.62 363.743 33
1 -6 -4 3.09150 46.1173 15
1 -6 -4 29.3917 45.1541 33
1 -6 -3 5639.55 367.123 33
1 -6 -3 5025.39 392.851 15
1 -6 -2 5762.77 428.622 15
1 -6 -2 5306.03 363.308 33
-1 6 1 62.9017 92.7339 10
1 -6 -1 290.359 94.9980 15
1 -6 0 2299.90 278.615 15
1 -6 1 270.401 99.0806 15
-1 6 -1 251.298 142.925 2
1 -6 2 27.5908 62.6635 24
1 -6 2 14.8682 63.3907 18
-1 6 -2 35.2435 45.9472 2
1 -6 2 17.5424 50.2649 15
1 -6 3 144.850 71.6095 24
1 -6 3 127.091 61.3912 25
1 -6 3 116.036 85.8947 18
1 -6 4 288.120 126.471 18
1 -6 4 307.634 122.679 25
1 -6 4 449.728 135.370 24
1 -6 5 6246.92 491.776 24
1 -6 5 5037.32 460.908 17
1 -6 5 6701.55 632.833 18
1 -6 6 153.505 52.6842 24
1 -6 6 260.632 107.301 17
1 -6 7 1074.70 193.293 24
1 -6 8 -3.48392 37.8185 24
1 -6 9 1013.06 142.625 24
1 -6 10 53.3539 26.4137 32
-1 5 10 89.1200 36.9708 22
-1 5 10 21.8061 25.0051 12
-1 5 10 95.0147 46.6697 21
-1 5 9 517.239 125.889 21
-1 5 9 467.604 99.3703 22
-1 5 8 3961.96 332.135 22
-1 5 8 4084.49 359.661 21
1 -5 -7 774.140 149.200 33
-1 5 7 986.279 179.310 22
1 -5 -6 2999.28 288.236 33
1 -5 -5 419.607 107.430 33
-1 5 4 161.920 138.516 10
-1 5 3 12157.7 933.284 10
-1 5 2 7761.07 711.044 10
-1 5 1 3369.43 438.141 10
-1 5 0 10133.4 720.417 10
-1 5 -1 6517.76 584.056 10
-1 5 -1 3849.81 492.876 2
-1 5 -2 16207.3 998.359 2
1 -5 2 14619.3 816.555 7
-1 5 -3 9710.90 782.671 2
1 -5 3 7994.28 659.189 7
1 -5 4 -0.81336 37.2013 7
1 -5 5 360.503 124.125 24
1 -5 5 280.100 122.592 18
1 -5 6 2949.28 386.719 18
1 -5 6 3444.55 380.119 24
1 -5 7 13732.9 749.854 24
1 -5 8 3164.10 341.397 24
1 -5 9 745.552 152.548 24
1 -5 10 1263.77 166.293 24
1 -5 11 -6.32972 16.8826 32
-1 4 11 17.9285 34.3523 22
-1 4 10 97.3891 61.0431 22
-1 4 10 13.5302 24.8496 21
-1 4 9 34.2203 44.9932 21
-1 4 9 232.815 79.0261 22
-1 4 8 131.294 87.3486 22
-1 4 8 94.9268 61.0158 21
-1 4 7 831.423 163.081 22
-1 4 7 763.649 151.597 30
-1 4 6 921.896 161.695 30
-1 4 5 4246.35 518.454 10
-1 4 4 -53.7090 62.7969 10
-1 4 3 64.1848 66.3268 10
-1 4 2 3866.63 444.020 10
-1 4 1 6268.47 527.177 10
-1 4 0 4265.11 412.252 10
1 -4 1 2288.93 285.639 7
-1 4 -1 1641.63 256.986 10
1 -4 2 393.724 127.233 7
-1 4 -2 317.529 116.816 2
-1 4 -3 183.581 107.063 2
1 -4 3 245.712 116.582 7
1 -4 4 2364.41 366.232 7
-1 4 -4 2316.64 378.791 2
1 -4 5 1311.07 287.954 7
-1 4 -5 627.386 207.391 2
1 -4 6 298.885 144.422 7
1 -4 6 210.476 84.9652 24
1 -4 7 345.895 124.162 24
1 -4 8 489.300 145.842 24
1 -4 9 2368.59 307.010 24
1 -4 10 68.9768 49.9347 24
1 -4 11 9.53170 30.1233 32
1 -4 11 -40.4340 45.8108 26
-1 3 12 701.433 98.6552 22
-1 3 11 149.003 61.0764 22
-1 3 10 25.2168 49.0990 22
-1 3 10 51.1693 54.5752 30
-1 3 9 3375.63 319.822 22
-1 3 9 3516.46 330.313 30
-1 3 9 2982.48 309.397 21
-1 3 8 256.535 105.864 22
-1 3 8 353.325 114.972 21
-1 3 8 395.408 116.293 30
-1 3 7 110.778 59.3194 22
-1 3 7 135.059 63.8257 30
-1 3 6 591.698 189.440 10
-1 3 5 2326.38 343.913 10
1 -3 -4 2070.88 354.402 5
-1 3 4 1527.06 278.781 10
1 -3 -3 19961.7 957.670 5
-1 3 3 20747.1 966.425 10
-1 3 2 8550.90 580.071 10
1 -3 -2 10383.7 651.700 5
-1 3 1 190.616 93.4396 10
-1 3 0 11046.1 572.284 10
-1 3 -1 71916.9 1457.17 10
-1 3 -2 1443.43 205.352 10
-1 3 -2 369.540 136.897 2
-1 3 -3 1106.98 240.288 2
1 -3 4 -35.0087 73.4620 7
-1 3 -4 -34.1558 49.8111 2
-1 3 -5 306.287 143.799 2
1 -3 5 336.853 148.501 7
1 -3 6 2465.37 393.815 7
-1 3 -6 1457.46 347.375 3
-1 3 -6 2037.95 370.882 2
1 -3 7 295.144 152.539 7
1 -3 7 377.588 120.197 24
-1 3 -7 270.360 171.665 3
1 -3 8 -37.0590 57.3651 24
1 -3 8 4.22371 42.3298 30
1 -3 9 216.385 99.4857 24
1 -3 9 186.207 79.0605 30
1 -3 10 103.153 50.7938 24
1 -3 10 186.768 67.4967 30
1 -3 11 284.374 72.0217 30
1 -3 11 379.271 87.4748 32
1 -3 12 289.941 61.5871 32
1 -3 12 223.538 69.8863 26
-1 2 12 13.7139 18.8634 22
-1 2 11 148.447 61.5043 22
-1 2 11 235.728 74.8827 30
-1 2 10 481.444 122.643 22
-1 2 10 257.833 86.8389 30
-1 2 9 289.301 95.9944 30
-1 2 9 254.555 91.3777 22
-1 2 8 320.257 103.939 30
-1 2 8 339.412 107.446 22
1 -2 -7 -93.3247 70.9705 5
1 -2 -6 3295.58 504.200 5
-1 2 5 720.991 178.907 10
1 -2 -5 868.651 241.886 5
-1 2 4 1924.24 263.189 10
1 -2 -4 1927.19 322.001 5
1 -2 -3 20152.7 905.733 5
-1 2 3 19029.9 786.242 10
-1 2 2 7997.45 487.798 10
1 -2 -2 8432.38 535.910 5
1 -2 -1 22822.4 580.429 6
1 -2 -1 23419.1 862.475 5
-1 2 1 24960.1 810.301 10
-1 2 0 1212.02 164.753 10
-1 2 -1 22.9215 27.3593 10
-1 2 -2 10148.4 571.453 2
1 -2 2 8569.43 357.195 11
-1 2 -3 3313.29 341.589 2
1 -2 3 2448.17 264.458 11
-1 2 -4 12548.2 715.386 2
1 -2 4 13927.8 744.216 11
-1 2 -5 79.5859 83.1006 2
1 -2 5 17.4853 30.5250 11
1 -2 5 -28.7319 70.8852 7
1 -2 6 2621.47 366.321 7
-1 2 -6 2256.42 379.656 3
1 -2 6 2161.73 347.670 11
-1 2 -6 2596.32 383.570 2
1 -2 7 649.664 207.815 11
-1 2 -7 640.564 229.337 3
1 -2 7 858.800 223.507 7
-1 2 -7 894.788 265.877 2
1 -2 7 824.694 229.602 8
1 -2 8 59.4709 51.1562 24
1 -2 8 -39.7052 50.8659 30
1 -2 9 5872.22 456.415 24
1 -2 9 6486.22 442.157 30
1 -2 10 1015.18 176.028 30
1 -2 11 59.1863 51.3209 30
1 -2 11 30.3349 40.3812 32
1 -2 12 116.350 47.1128 30
1 -2 12 94.3962 39.4480 32
-1 1 12 172.691 58.0133 22
-1 1 12 245.282 69.8718 30
-1 1 11 750.710 132.859 30
-1 1 11 654.504 136.569 22
-1 1 10 128.610 79.8460 22
-1 1 10 143.811 73.4882 30
-1 1 9 7651.64 489.737 22
-1 1 9 8111.25 466.501 30
-1 1 8 3226.35 296.581 30
-1 1 8 3113.20 309.690 22
-1 1 7 8510.84 751.832 11
-1 1 5 7395.53 483.146 10
-1 1 4 30097.7 901.966 10
-1 1 3 25278.1 789.762 10
-1 1 2 48.2103 42.4640 10
1 -1 -2 54.0447 58.9636 5
-1 1 1 9126.50 249.600 11
1 -1 0 7053.88 330.609 1
1 -1 1 19264.4 497.891 1
1 -1 2 2218.65 169.347 1
1 -1 2 2981.47 164.948 9
1 -1 3 62045.5 896.195 9
-1 1 -3 64284.7 1342.44 2
-1 1 -4 13474.2 681.937 2
1 -1 4 13037.5 484.652 9
-1 1 -5 3947.56 432.155 3
-1 1 -5 4143.21 417.779 2
1 -1 6 8010.76 597.808 7
-1 1 -6 6434.28 594.537 2
-1 1 -6 6412.15 610.472 3
1 -1 7 1318.04 276.009 8
1 -1 7 1122.47 234.385 7
-1 1 -7 1384.94 312.209 2
-1 1 -7 1339.17 316.210 3
1 -1 8 978.827 261.564 8
-1 1 -8 772.538 278.330 2
1 -1 8 1238.10 319.579 11
1 -1 9 2416.21 285.894 24
1 -1 9 2639.77 295.549 30
1 -1 10 176.808 71.4052 30
1 -1 11 179.875 63.1416 32
1 -1 11 261.443 101.712 30
1 -1 12 14.0006 21.5307 30
-1 0 12 677.504 114.367 30
-1 0 11 29.1124 22.4570 30
-1 0 11 12.1450 18.8665 22
-1 0 10 689.387 146.707 22
-1 0 10 864.357 153.550 30
-1 0 9 4693.79 356.249 30
-1 0 9 4024.40 347.394 22
-1 0 9 4298.72 312.128 32
-1 0 8 400.346 178.464 11
-1 0 7 -55.2412 98.4208 11
-1 0 6 1891.50 333.713 11
-1 0 5 31228.5 1208.53 11
-1 0 4 42718.9 1284.75 11
-1 0 3 2076.06 254.639 11
1 0 -2 93525.2 1516.58 1
-1 0 2 92018.9 1429.81 11
1 0 -1 109869. 1487.45 1
-1 0 1 110570. 1182.76 11
1 0 0 67182.6 1087.74 1
-1 0 0 66845.3 939.455 2
1 0 0 66543.8 1053.95 5
-1 0 -1 41723.6 826.677 2
1 0 2 5354.11 283.433 9
-1 0 -3 14657.5 664.949 3
1 0 3 13088.8 490.502 9
-1 0 -3 14254.0 621.072 2
-1 0 -4 6595.95 475.372 2
1 0 4 7565.51 428.050 9
-1 0 -4 7410.02 516.603 3
-1 0 -5 62326.1 1691.83 2
1 0 5 64160.1 1446.00 9
-1 0 -5 64918.9 1740.65 3
1 0 6 19574.5 873.134 7
1 0 6 19471.7 891.288 9
-1 0 -6 18315.3 1040.59 2
1 0 7 1439.31 297.151 8
-1 0 -7 1473.82 326.957 2
1 0 8 4473.05 576.847 8
1 0 9 5179.76 397.686 30
1 0 10 722.396 151.808 30
1 0 11 72.2308 52.4904 30
1 0 12 159.998 60.7824 30
1 0 13 353.490 66.3569 30
-1 -1 12 -4.95319 30.7949 26
-1 -1 11 229.297 74.5054 32
-1 -1 11 197.398 70.6016 30
-1 -1 10 637.913 125.195 32
-1 -1 10 573.108 129.254 30
-1 -1 9 2748.17 273.185 30
-1 -1 9 2898.30 266.686 32
-1 -1 7 1869.29 366.981 11
-1 -1 6 1708.77 319.024 11
-1 -1 5 1895.16 308.720 11
-1 -1 4 661.328 163.304 11
-1 -1 3 4647.66 395.146 11
1 1 -3 7736.11 471.317 1
-1 -1 2 40856.7 1032.34 11
-1 -1 2 40224.2 778.073 6
1 1 -2 39149.3 994.784 1
1 1 -1 12667.5 520.081 1
-1 -1 1 12316.7 528.137 11
-1 -1 1 13157.6 413.311 6
-1 -1 1 12131.5 230.261 2
-1 -1 0 19134.3 426.891 2
1 1 0 18736.8 517.029 5
-1 -1 -1 2734.62 211.326 2
-1 -1 -1 2497.08 153.883 4
1 1 2 1925.60 205.628 9
-1 -1 -2 1799.66 223.578 3
-1 -1 -2 1859.32 212.394 2
-1 -1 -3 10220.4 559.446 2
1 1 3 10003.9 486.878 9
-1 -1 -4 19.4979 39.0339 2
1 1 4 103.351 68.8906 9
-1 -1 -5 3326.87 427.997 2
1 1 5 2492.17 305.018 9
1 1 6 472.782 154.551 9
1 1 7 4060.62 488.110 8
1 1 7 3605.00 433.186 9
1 1 8 3211.07 488.233 8
1 1 9 1387.94 249.801 22
1 1 9 1400.02 212.163 30
1 1 10 619.625 162.508 22
1 1 10 784.368 157.355 30
1 1 11 101.099 68.7229 22
1 1 11 178.229 67.7561 30
1 1 12 94.3731 47.6520 22
1 1 12 103.053 51.0945 30
1 1 13 9.01288 12.7433 30
-1 -2 12 175.286 53.6757 32
-1 -2 12 142.206 56.7260 26
-1 -2 11 6733.78 372.427 32
-1 -2 10 1166.34 170.992 32
-1 -2 9 868.364 154.729 32
-1 -2 8 5573.51 380.497 32
-1 -2 7 38.7250 71.8162 11
-1 -2 6 6311.28 626.992 11
-1 -2 5 3598.42 429.057 11
1 2 -4 15624.8 708.939 1
-1 -2 4 14305.6 773.853 11
1 2 -3 24539.4 853.476 1
-1 -2 3 25077.6 970.229 11
1 2 -2 57487.8 1276.06 1
-1 -2 2 56525.6 1210.33 6
-1 -2 2 53926.6 1416.76 11
-1 -2 1 999999. 4678.95 6
-1 -2 0 89075.6 1290.77 4
-1 -2 0 90784.0 1277.88 6
-1 -2 -1 20246.9 614.628 4
1 2 2 36043.9 964.840 9
1 2 3 4599.14 375.299 9
1 2 4 48532.7 1319.54 9
1 2 5 938.914 203.342 9
1 2 6 9280.80 701.508 9
1 2 7 3216.42 429.650 8
1 2 7 3859.84 479.095 9
1 2 8 1432.01 305.849 9
1 2 8 2087.72 285.258 22
1 2 9 17991.4 893.964 22
1 2 9 17430.4 747.703 30
1 2 10 1085.80 227.925 22
1 2 10 1141.79 189.690 30
1 2 11 20.0884 44.5181 22
1 2 11 51.4017 48.1800 30
1 2 12 47.9207 43.5909 22
1 2 12 37.2862 25.5179 30
1 2 13 37.9956 23.2248 30
-1 -3 12 209.131 72.7379 26
-1 -3 12 273.634 59.7430 32
-1 -3 11 328.399 90.5538 32
-1 -3 11 315.213 116.689 26
-1 -3 10 475.088 109.105 32
-1 -3 9 2561.68 265.721 32
-1 -3 8 1147.88 184.877 32
-1 -3 7 103.721 75.8591 11
-1 -3 6 615.768 204.475 11
-1 -3 5 368.777 140.022 11
-1 -3 4 50.4007 59.8558 11
1 3 -3 1862.14 255.243 1
-1 -3 3 2349.22 350.807 11
-1 -3 3 2299.50 299.735 6
-1 -3 2 4637.70 417.548 6
-1 -3 2 4316.57 399.150 4
-1 -3 1 7490.77 496.559 4
-1 -3 1 7516.10 480.156 6
-1 -3 0 5143.94 389.991 4
-1 -3 0 5327.80 378.505 6
1 3 1 31330.3 932.086 9
1 3 2 10341.4 562.801 9
1 3 3 3889.73 373.660 9
1 3 4 7095.20 550.415 9
1 3 5 168.876 102.522 9
1 3 6 243.626 129.908 9
1 3 6 263.180 117.641 8
1 3 7 5094.31 598.219 9
1 3 7 4555.64 526.625 8
1 3 8 3525.80 328.029 30
1 3 8 4030.86 394.548 22
1 3 9 1742.00 281.855 22
1 3 9 1637.97 240.273 30
1 3 10 -20.4172 71.1491 22
1 3 10 4.45212 49.0823 30
1 3 11 477.244 123.610 22
1 3 11 380.868 89.4694 30
1 3 12 1485.89 168.159 22
1 3 12 1130.04 128.866 30
-1 -4 12 184.212 55.8191 26
-1 -4 12 209.656 43.9837 32
-1 -4 11 1933.22 178.580 32
-1 -4 11 2129.40 258.496 26
-1 -4 10 686.664 121.335 32
-1 -4 10 694.642 171.768 26
-1 -4 9 659.353 138.622 32
-1 -4 9 660.306 172.211 26
-1 -4 8 1512.92 211.705 31
-1 -4 8 1460.28 204.448 32
-1 -4 7 7072.21 431.654 32
-1 -4 7 6435.47 420.303 31
-1 -4 6 180.629 108.825 4
-1 -4 6 468.709 204.237 11
-1 -4 5 121.061 103.876 4
-1 -4 5 67.1170 94.5907 11
-1 -4 4 1198.51 274.255 4
-1 -4 4 977.119 272.368 11
-1 -4 3 7994.43 669.664 4
-1 -4 3 7931.20 650.575 6
-1 -4 2 27300.8 1150.64 4
-1 -4 2 27475.5 1136.74 6
-1 -4 1 32711.0 1130.02 6
-1 -4 1 31645.6 1164.80 4
1 4 0 10477.9 591.414 9
-1 -4 0 10603.0 620.377 6
1 4 1 1364.41 218.700 9
-1 -4 -1 926.708 181.459 6
1 4 2 16677.2 781.125 9
1 4 3 16070.2 820.351 9
1 4 4 3076.38 390.049 9
1 4 5 15.2293 56.7170 9
1 4 6 822.215 246.122 9
1 4 7 5107.94 432.122 22
1 4 8 2706.91 340.325 22
1 4 9 98.4729 69.5388 22
1 4 10 512.970 138.941 22
1 4 10 368.599 100.421 30
1 4 11 5.27690 22.2111 22
1 4 11 10.7546 16.0614 30
1 4 12 0.46458 15.0668 22
-1 -5 11 109.930 55.3682 26
-1 -5 11 79.5241 36.4815 32
-1 -5 10 68.7941 41.3861 26
-1 -5 10 109.706 43.2650 32
-1 -5 9 239.290 75.3214 32
-1 -5 9 143.715 80.9240 26
-1 -5 8 822.550 147.716 32
-1 -5 8 900.997 172.824 31
-1 -5 8 772.001 179.357 26
-1 -5 7 1025.95 162.851 32
-1 -5 7 1197.03 259.432 17
-1 -5 7 1028.53 176.395 31
-1 -5 7 1363.35 243.631 26
-1 -5 6 1273.93 229.958 25
-1 -5 6 1257.59 256.264 17
-1 -5 6 966.932 158.548 32
-1 -5 6 822.583 140.979 31
-1 -5 6 1039.18 213.165 26
-1 -5 5 7654.67 819.029 4
-1 -5 4 239.100 133.842 4
-1 -5 3 1607.78 333.057 4
-1 -5 3 1769.44 343.326 6
-1 -5 2 2946.30 437.166 4
-1 -5 2 2572.89 389.948 6
-1 -5 1 7239.24 620.018 6
-1 -5 0 1751.88 293.383 6
1 5 0 1923.52 276.407 9
1 5 1 5679.13 488.115 9
-1 -5 -1 6816.89 592.726 6
-1 -5 -2 17914.7 977.073 6
1 5 2 17082.2 881.015 9
-1 -5 -3 8619.39 693.732 6
1 5 3 8611.58 659.451 9
-1 -5 -4 348.898 155.376 6
1 5 4 127.517 100.705 9
1 5 5 5441.58 609.427 9
1 5 6 3525.43 363.566 22
-1 -5 -6 3791.21 319.762 33
-1 -5 -7 11558.5 580.367 33
1 5 7 11671.3 689.576 22
1 5 8 662.075 161.363 22
1 5 9 1558.82 235.298 22
1 5 10 1159.08 174.981 22
1 5 11 267.085 70.7353 22
-1 -6 10 6.27846 16.6699 32
-1 -6 10 -35.3711 47.4745 26
-1 -6 9 50.6520 35.7104 32
-1 -6 9 72.2576 59.8456 26
-1 -6 8 791.456 142.280 31
-1 -6 8 393.331 92.0943 32
-1 -6 8 618.500 159.033 26
-1 -6 7 345.406 159.089 17
-1 -6 7 158.019 68.5417 32
-1 -6 7 186.636 65.8202 31
-1 -6 7 251.981 102.409 26
-1 -6 6 816.930 213.264 17
-1 -6 6 427.712 98.7915 31
-1 -6 6 837.252 187.143 25
-1 -6 6 839.198 193.977 26
-1 -6 5 10.4339 49.6027 17
-1 -6 5 15.9915 55.9067 26
-1 -6 5 16.5869 45.6641 25
-1 -6 4 13.6889 46.2618 13
-1 -6 4 -12.7216 66.6364 17
-1 -6 4 85.4923 63.4640 26
-1 -6 4 8.50634 27.0455 25
-1 -6 3 514.752 195.593 6
-1 -6 2 21.5581 42.9709 6
-1 -6 1 1381.29 313.573 6
-1 -6 0 1389.59 309.636 6
-1 -6 -1 1799.76 344.472 6
-1 -6 -2 910.548 253.111 6
-1 -6 -3 1215.27 284.111 6
-1 -6 -4 469.530 126.147 33
-1 -6 -5 125.954 59.1211 33
-1 -6 -6 1494.05 216.204 33
-1 -6 -7 1575.17 214.301 33
1 6 8 25.5079 53.9540 22
-1 -6 -8 92.2895 62.9657 33
1 6 9 48.3019 53.4617 22
1 6 10 -16.4784 24.1868 22
-1 -7 9 -17.9841 21.7506 26
-1 -7 8 286.675 85.1178 26
-1 -7 8 669.892 123.304 31
-1 -7 7 44.3182 33.9659 31
-1 -7 7 181.453 78.2680 26
-1 -7 6 -59.0268 71.4110 26
-1 -7 6 -201.256 120.005 31
-1 -7 6 -28.0812 74.4062 17
-1 -7 5 77.5025 58.8773 13
-1 -7 5 64.5266 50.5730 17
-1 -7 5 -20.3416 63.1096 26
-1 -7 5 15.0727 37.7775 25
-1 -7 4 45.3861 29.8054 13
-1 -7 4 72.0379 71.0285 17
-1 -7 4 84.0681 34.3083 26
-1 -7 4 -7.06084 43.2943 25
-1 -7 3 4941.22 392.637 25
-1 -7 3 5312.15 502.203 17
-1 -7 3 4434.05 342.599 13
-1 -7 3 4562.56 418.256 26
-1 -7 2 381.379 101.779 13
-1 -7 2 569.017 146.672 26
-1 -7 1 308.774 96.0713 13
-1 -7 1 267.594 99.0523 26
-1 -7 0 744.118 155.162 13
-1 -7 0 488.897 147.818 15
-1 -7 0 666.648 147.493 27
-1 -7 -1 5188.74 394.669 27
-1 -7 -1 4572.89 355.726 13
-1 -7 -1 5329.32 444.618 15
-1 -7 -1 4972.72 380.184 33
-1 -7 -2 186.776 109.954 13
-1 -7 -2 128.137 72.1111 33
-1 -7 -2 22.8519 31.4591 27
-1 -7 -3 1196.27 197.600 33
-1 -7 -3 964.776 160.291 27
-1 -7 -4 363.713 116.148 33
-1 -7 -5 -8.08234 60.1273 33
-1 -7 -6 561.782 131.046 33
-1 -7 -7 2893.28 278.938 33
-1 -7 -8 -39.9029 57.5043 15
-1 -7 -8 33.7938 46.0908 33
-1 -7 -9 -29.6529 34.2074 27
-1 -8 8 42.7423 26.1251 26
-1 -8 8 945.751 118.245 31
-1 -8 7 332.406 86.3776 31
-1 -8 7 109.645 46.0264 26
-1 -8 6 548.691 151.865 17
-1 -8 6 449.433 98.3701 31
-1 -8 6 572.080 125.745 26
-1 -8 5 425.190 149.788 17
-1 -8 5 400.244 105.027 13
-1 -8 5 177.166 62.9218 31
-1 -8 5 405.524 118.607 26
-1 -8 5 562.485 138.516 25
-1 -8 4 251.280 96.3144 13
-1 -8 4 46.7457 63.3872 17
-1 -8 4 75.8300 72.9037 26
-1 -8 4 55.5944 48.2541 25
-1 -8 3 445.540 123.295 13
-1 -8 3 354.222 125.572 25
-1 -8 3 576.637 163.168 17
-1 -8 3 408.932 136.714 26
-1 -8 2 707.478 150.707 13
-1 -8 2 674.795 179.167 17
-1 -8 2 669.685 145.333 25
-1 -8 1 970.139 180.776 13
-1 -8 0 1943.50 258.715 13
-1 -8 0 1363.08 218.936 15
-1 -8 -1 237.903 108.591 27
-1 -8 -1 116.380 66.5837 33
-1 -8 -1 56.5333 59.8028 15
-1 -8 -2 149.378 74.9506 33
-1 -8 -2 132.406 81.0848 15
-1 -8 -2 157.958 93.7689 27
-1 -8 -3 2579.81 282.339 33
-1 -8 -3 2300.00 265.902 27
-1 -8 -3 2581.78 319.444 15
-1 -8 -4 418.505 143.802 15
-1 -8 -4 447.206 115.845 33
-1 -8 -4 512.572 138.990 27
-1 -8 -5 1376.35 206.110 27
-1 -8 -5 1522.42 212.020 33
-1 -8 -5 1261.52 221.463 15
-1 -8 -6 316.846 102.677 33
-1 -8 -6 247.239 92.0265 27
-1 -8 -6 277.465 108.258 15
-1 -8 -7 69.5987 52.8013 33
-1 -8 -7 26.6620 34.3435 27
-1 -8 -7 49.4330 35.0178 15
-1 -8 -8 -23.7361 29.9787 33
-1 -8 -8 -3.73287 17.5800 27
-1 -8 -8 -80.3161 31.0384 15
-1 -9 6 172.529 54.8747 31
-1 -9 5 345.680 81.6802 31
-1 -9 5 510.671 132.338 17
-1 -9 4 830.573 129.651 31
-1 -9 4 1345.21 225.651 17
-1 -9 4 1289.62 184.077 25
-1 -9 3 1080.65 208.115 17
-1 -9 3 589.385 101.867 31
-1 -9 3 1051.14 162.848 25
-1 -9 2 383.923 134.854 17
-1 -9 2 420.993 114.686 25
-1 -9 1 304.488 116.289 17
-1 -9 1 177.611 87.5076 25
-1 -9 0 1616.77 240.240 17
-1 -9 0 1148.66 171.208 15
-1 -9 0 1646.65 211.793 25
-1 -9 -1 2812.71 302.352 17
-1 -9 -1 2677.83 273.489 15
-1 -9 -2 396.965 105.877 33
-1 -9 -2 427.634 122.198 15
-1 -9 -3 150.777 71.5144 33
-1 -9 -3 -3.84916 39.6603 15
-1 -9 -4 1033.71 156.302 33
-1 -9 -4 958.784 170.079 15
-1 -9 -5 201.930 70.6061 33
-1 -9 -5 221.828 83.8325 15
-1 -9 -6 1220.16 137.909 33
-1 -9 -6 1296.92 157.907 15
-1 -10 3 144.193 54.1171 17
-1 -10 2 500.297 107.821 17
-1 -10 2 741.723 112.710 25
-1 -10 1 71.3068 44.3357 17
-1 -10 1 92.5852 50.9065 25
-1 -10 0 779.553 117.607 25
-1 -10 -1 1035.09 126.382 15
-1 -10 -1 1602.67 169.219 25
-1 -10 -2 4.52503 21.0085 15
-1 -10 -2 18.8994 39.2836 25
-1 -10 -3 1477.42 151.543 25
-1 -10 -3 1621.63 168.337 15
-1 -10 -4 146.003 48.6092 15
2 -9 -1 335.229 71.9392 24
2 -9 0 358.481 74.0655 24
2 -9 1 123.879 43.6857 24
2 -9 2 204.423 49.9420 24
2 -8 -5 3411.55 224.490 24
2 -8 -4 45.2769 32.1468 24
2 -8 -3 310.074 84.3005 24
2 -8 -2 70.3368 44.0318 24
2 -8 -1 25.1823 29.5941 24
2 -8 -1 -25.4610 41.6987 18
2 -8 0 362.565 105.491 24
2 -8 0 465.051 138.012 18
2 -8 1 2126.20 242.584 24
2 -8 1 1960.19 274.576 18
2 -8 2 1243.07 180.811 24
2 -8 2 1222.73 217.529 18
2 -8 3 382.745 96.6732 24
2 -8 3 194.016 65.1557 17
2 -8 3 404.066 123.621 18
2 -8 4 545.216 107.751 24
2 -8 5 440.748 86.7563 24
-2 7 7 -15.7586 20.3750 21
-2 7 6 58.3056 36.9190 21
2 -7 -6 56.7507 38.0808 20
2 -7 -5 355.977 97.8027 20
-2 7 5 184.037 68.2603 21
-2 7 4 99.1077 48.4637 21
2 -7 -4 129.440 62.2225 20
2 -7 -3 -15.4928 41.3509 20
2 -7 -2 2305.09 266.472 20
2 -7 -1 1831.06 250.940 24
2 -7 -1 1433.35 210.812 20
2 -7 0 699.057 157.635 24
2 -7 0 544.508 139.203 20
2 -7 1 738.283 163.895 24
2 -7 1 727.444 198.520 18
2 -7 2 489.281 134.783 24
2 -7 2 653.197 177.505 18
2 -7 3 2492.99 295.672 24
2 -7 3 2284.65 332.225 18
2 -7 4 3084.11 310.979 24
2 -7 4 2819.49 361.609 18
2 -7 5 46.0395 43.8612 24
2 -7 5 34.8571 76.5844 18
2 -7 6 136.649 64.5946 24
2 -7 7 -3.48143 19.1580 24
2 -6 -8 291.646 79.2183 20
-2 6 8 447.240 90.1048 21
-2 6 7 584.937 115.555 21
2 -6 -7 668.187 134.475 20
2 -6 -6 737.825 160.027 20
-2 6 6 783.919 149.716 21
-2 6 5 3336.54 324.791 21
2 -6 -5 3030.79 327.651 20
-2 6 4 4020.21 376.754 21
2 -6 -4 3671.79 371.376 20
-2 6 3 1711.07 244.670 21
2 -6 -3 1726.05 260.296 20
2 -6 -3 1531.34 202.222 15
2 -6 -2 14609.8 730.053 20
2 -6 -2 14080.1 652.509 15
2 -6 -1 5555.12 450.099 20
2 -6 -1 6345.88 452.799 15
2 -6 0 1368.09 223.800 20
2 -6 0 1733.45 265.394 24
2 -6 1 57.1785 38.1337 24
2 -6 1 -18.3841 51.6068 20
2 -6 2 5965.85 488.325 24
2 -6 3 17237.4 821.283 24
2 -6 3 17411.4 924.928 18
2 -6 4 893.854 184.420 24
2 -6 4 887.142 223.027 18
2 -6 5 5724.12 457.463 24
2 -6 5 6265.26 558.665 18
2 -6 6 1435.65 250.315 18
2 -6 6 1596.27 227.097 24
2 -6 7 41.2103 52.8495 24
2 -6 8 29.7438 22.6622 24
2 -6 9 126.448 39.7177 24
-2 5 9 10.6151 22.0445 21
-2 5 9 75.7465 44.7032 12
2 -5 -9 35.3321 41.7139 20
-2 5 8 90.5533 52.6187 21
-2 5 8 31.7889 34.6862 12
2 -5 -8 187.220 83.4477 20
-2 5 7 877.851 165.867 21
-2 5 7 494.230 137.500 12
-2 5 6 27.9024 48.3573 21
-2 5 6 17.9078 49.6055 12
2 -5 -5 5258.46 455.405 20
-2 5 5 5456.40 436.035 21
-2 5 4 180.798 91.7244 21
2 -5 -4 67.2959 65.6129 20
-2 5 3 7590.57 503.072 21
2 -5 -3 7556.14 538.994 20
2 -5 -2 12909.2 618.112 15
2 -5 -2 13722.8 707.969 20
2 -5 -1 722.147 158.785 20
2 -5 -1 853.933 158.338 15
2 -5 0 -10.1339 29.7535 20
2 -5 0 -60.5495 78.0675 15
2 -5 1 82.9783 67.5065 24
2 -5 1 49.7264 57.5169 20
2 -5 2 115.668 47.4149 24
2 -5 2 218.393 99.9655 20
2 -5 3 4104.54 401.051 24
2 -5 4 27.1978 49.8062 24
2 -5 4 114.497 121.240 18
2 -5 5 5275.78 454.300 24
2 -5 5 5172.35 511.321 18
2 -5 6 545.722 146.812 24
2 -5 6 420.399 149.688 18
2 -5 7 6833.89 490.870 24
2 -5 8 2410.73 270.439 24
2 -5 9 10.8860 26.3548 24
-2 4 10 44.8526 34.4879 12
-2 4 9 15.0410 33.9526 22
-2 4 9 77.3805 41.3449 21
-2 4 9 -24.6408 54.8216 12
-2 4 8 232.160 84.7234 22
-2 4 8 147.067 73.7501 21
-2 4 8 95.2258 83.5389 12
-2 4 7 166.903 75.9650 22
-2 4 7 98.0155 71.0876 21
-2 4 7 102.208 86.0537 12
-2 4 6 7287.02 501.222 21
-2 4 6 6575.40 552.454 12
-2 4 6 7205.09 493.392 22
-2 4 5 60.5490 65.1307 22
-2 4 5 81.0632 49.6165 21
-2 4 5 57.1288 51.9427 12
-2 4 4 4432.82 379.336 21
-2 4 4 3820.50 393.426 12
-2 4 3 6565.43 714.734 10
-2 4 2 41.3737 57.7511 10
-2 4 1 674.845 205.072 10
-2 4 0 60.4293 83.6257 2
-2 4 -1 32.7012 64.8356 2
-2 4 -2 117.668 98.7142 2
-2 4 -3 1676.58 366.396 2
2 -4 4 6484.49 649.603 7
-2 4 -4 4894.04 658.280 2
2 -4 5 456.837 130.564 24
2 -4 5 361.341 133.793 18
2 -4 6 1435.31 237.064 24
2 -4 7 220.579 104.422 24
2 -4 8 2586.87 303.732 24
2 -4 8 1947.58 208.393 30
2 -4 9 12.0117 52.1969 24
2 -4 9 24.3495 30.2659 30
2 -4 10 49.4466 41.5243 24
2 -4 10 66.2242 29.2444 30
2 -4 11 100.450 35.5069 32
-2 3 11 41.9882 34.7422 12
-2 3 10 271.116 78.0205 22
-2 3 10 92.0325 59.0675 12
-2 3 9 3602.68 305.730 22
-2 3 9 3462.74 317.239 21
-2 3 8 1720.01 227.259 22
-2 3 8 1659.32 237.278 21
-2 3 7 3919.29 360.786 22
-2 3 7 3431.01 340.893 21
-2 3 6 713.666 160.458 22
-2 3 6 588.710 140.367 21
-2 3 5 7.52320 55.7712 10
2 -3 -5 83.5652 95.2273 5
-2 3 4 12537.2 925.277 10
2 -3 -4 11094.8 963.914 5
-2 3 3 9711.26 797.280 10
2 -3 -3 11432.9 932.486 5
-2 3 2 5119.52 553.831 10
2 -3 -2 3992.31 531.242 5
-2 3 1 22577.5 1143.57 10
-2 3 0 6494.20 609.235 2
-2 3 -1 29344.6 1293.58 2
-2 3 -2 23454.2 1173.62 2
-2 3 -3 571.284 206.520 2
-2 3 -4 328.984 151.234 2
-2 3 -5 4534.64 625.529 2
2 -3 6 21677.8 873.809 24
2 -3 7 6308.54 483.121 24
2 -3 8 1188.61 207.288 24
2 -3 8 1202.68 177.162 30
2 -3 9 3136.08 327.100 24
2 -3 9 2945.91 269.955 30
2 -3 10 2.03194 34.8269 24
2 -3 10 33.5025 35.0727 30
2 -3 11 196.261 55.3048 30
-2 2 11 31.9846 32.7043 12
-2 2 10 12.0744 41.9502 22
-2 2 9 55.1330 37.2843 22
-2 2 9 45.5557 36.1120 21
-2 2 8 285.039 96.4241 22
-2 2 8 254.485 91.4757 21
-2 2 7 244.707 96.6477 22
-2 2 7 342.734 102.951 21
-2 2 6 3201.35 313.450 22
-2 2 6 3234.28 313.418 21
2 -2 -5 -30.0663 81.7417 5
2 -2 -4 46.6105 74.5967 5
2 -2 -3 904.455 250.476 5
2 -2 -2 4826.57 538.323 5
2 -2 -1 4198.00 489.481 5
-2 2 0 1866.21 299.168 2
-2 2 -1 375.673 136.171 2
-2 2 -2 183.360 87.8648 2
-2 2 -3 1051.75 237.085 2
-2 2 -4 2709.39 421.122 2
-2 2 -5 962.979 267.810 2
-2 2 -6 285.480 165.257 2
-2 2 -6 159.893 151.152 3
2 -2 7 169.577 84.5216 24
2 -2 8 2309.72 289.301 24
2 -2 9 126.437 63.2271 24
2 -2 9 77.6465 58.2510 30
2 -2 10 81.0997 46.3524 30
2 -2 11 56.9069 43.6941 30
2 -2 12 -5.42635 26.5801 30
-2 1 11 20.6252 29.3992 12
-2 1 10 1953.30 226.711 22
-2 1 9 527.116 128.176 22
-2 1 8 29.8642 30.4899 22
-2 1 8 93.6725 63.8520 21
-2 1 8 1.86479 37.1713 30
-2 1 7 814.739 167.347 22
-2 1 7 779.172 165.788 21
-2 1 7 1086.12 183.118 30
2 -1 -6 501.083 211.519 5
2 -1 -5 905.120 271.018 5
2 -1 -4 10616.2 894.484 5
2 -1 -3 8185.54 729.102 5
2 -1 -2 194.813 135.258 5
2 -1 -1 6415.71 516.639 1
2 -1 -1 6692.54 554.871 5
-2 1 0 78270.5 1730.03 2
2 -1 0 78216.4 1703.61 1
2 -1 0 79884.9 1903.49 5
2 -1 1 246.147 100.055 1
-2 1 -1 263.716 112.469 2
2 -1 2 484.020 135.102 1
-2 1 -2 461.087 139.713 2
-2 1 -3 -5.64662 51.8397 2
-2 1 -4 453.581 153.072 2
-2 1 -5 5894.65 638.635 3
-2 1 -5 6160.48 620.797 2
-2 1 -6 534.726 203.214 2
-2 1 -6 439.497 189.524 3
2 -1 7 77.6731 78.0776 7
2 -1 8 285.054 98.2014 24
2 -1 8 319.744 98.6332 30
2 -1 9 328.571 112.875 24
2 -1 9 463.104 127.221 30
2 -1 10 664.543 143.679 30
2 -1 11 818.625 150.852 30
2 -1 12 58.7516 39.8854 30
-2 0 12 71.5680 30.3899 14
-2 0 11 192.198 78.7156 12
-2 0 10 36.9185 41.1932 22
-2 0 10 35.7106 24.8465 32
-2 0 9 30.8692 50.0631 22
-2 0 9 92.3732 47.1489 32
-2 0 9 2.18283 24.4075 30
-2 0 8 24.5656 34.1555 22
-2 0 8 19.7583 35.0941 32
-2 0 8 67.5504 51.9143 30
-2 0 7 2412.08 275.220 22
-2 0 7 2747.76 261.597 32
-2 0 7 2574.82 273.206 30
2 0 -6 16.1368 57.6121 5
2 0 -5 930.352 285.909 5
-2 0 4 9270.87 642.686 11
2 0 -4 9154.01 817.410 5
2 0 -3 6995.15 588.306 1
-2 0 3 5643.88 476.005 11
2 0 -3 6723.40 653.156 5
2 0 -2 10961.1 766.396 5
2 0 -2 10142.3 652.884 1
2 0 -1 217.898 101.011 1
-2 0 1 125.384 55.8884 2
2 0 -1 190.491 96.0560 5
2 0 0 178.749 82.2021 1
-2 0 0 141.536 67.6935 2
2 0 0 187.407 95.8233 5
2 0 1 16687.3 811.609 1
-2 0 -1 17048.2 745.795 2
-2 0 -2 6008.30 470.522 2
2 0 2 4940.20 433.933 1
-2 0 -3 13706.9 739.294 3
-2 0 -3 13016.7 758.566 2
2 0 3 14137.9 644.844 9
-2 0 -4 559.236 165.337 2
-2 0 -4 795.012 205.305 3
-2 0 -5 3063.97 446.808 3
-2 0 -5 2832.58 409.147 2
-2 0 -6 457.805 192.363 2
-2 0 -6 817.453 254.214 3
-2 0 -7 152.433 122.997 2
2 0 8 8213.82 545.065 24
2 0 8 7640.88 461.238 30
2 0 9 1879.86 233.265 30
2 0 10 181.689 75.6468 30
2 0 11 377.443 104.295 30
2 0 12 120.599 48.1227 30
-2 -1 12 133.515 42.4577 14
-2 -1 11 35.1983 30.0432 32
-2 -1 10 3700.18 278.437 32
-2 -1 9 1756.83 206.557 32
-2 -1 8 4201.21 328.382 32
-2 -1 7 -8.14363 43.0646 22
-2 -1 7 96.0440 75.4297 32
-2 -1 6 3594.45 520.382 11
-2 -1 5 10757.3 849.062 11
2 1 -4 10119.7 764.992 1
-2 -1 4 8058.97 696.533 11
2 1 -3 1299.76 288.439 5
-2 -1 3 1691.10 296.687 11
2 1 -3 1292.47 244.662 1
2 1 -2 725.573 177.211 1
2 1 -2 792.316 214.506 5
2 1 -1 1464.88 250.366 1
2 1 -1 1584.43 262.506 5
2 1 0 8613.89 599.767 1
-2 -1 0 8452.11 449.872 2
2 1 0 9017.40 565.786 5
-2 -1 -1 518.957 127.359 3
-2 -1 -1 666.277 145.429 2
-2 -1 -2 28235.7 1010.92 3
-2 -1 -2 30271.3 1051.30 2
-2 -1 -3 6640.19 531.907 3
-2 -1 -3 5493.42 493.719 2
2 1 3 7084.17 529.322 9
-2 -1 -4 3275.81 415.508 2
2 1 4 3364.04 355.491 9
-2 -1 -5 5243.45 581.522 2
2 1 5 5496.05 474.624 9
-2 -1 -6 1798.77 386.561 2
-2 -1 -7 1404.18 367.852 2
2 1 8 3358.67 351.327 22
2 1 8 3414.98 303.437 30
2 1 9 -12.2246 32.0757 22
2 1 9 13.0263 32.3277 30
2 1 10 164.420 74.7653 22
2 1 10 95.7421 52.7894 30
2 1 11 37.7973 47.8886 22
2 1 11 61.6645 36.8669 30
2 1 12 118.157 48.1246 30
-2 -2 11 156.841 55.5199 32
-2 -2 10 2282.91 217.588 32
-2 -2 9 342.280 98.4190 32
-2 -2 8 103.718 60.7780 32
-2 -2 7 404.030 105.452 32
-2 -2 6 7801.25 845.796 11
-2 -2 5 16990.3 1200.79 11
-2 -2 4 1251.68 309.576 11
2 2 -4 907.794 231.262 1
2 2 -3 27631.1 1185.85 1
2 2 -2 17964.5 931.201 1
-2 -2 2 16374.2 708.316 6
2 2 -2 17714.3 993.907 5
2 2 -1 26175.3 1087.92 1
2 2 -1 24865.5 1024.34 5
-2 -2 1 23825.4 823.942 6
2 2 0 13643.4 643.279 5
-2 -2 0 13421.5 580.097 6
-2 -2 -1 2852.52 263.093 4
-2 -2 -1 2976.67 317.302 2
-2 -2 -2 4885.20 464.217 2
-2 -2 -3 2632.56 386.590 2
2 2 3 2346.36 339.298 9
-2 -2 -4 45360.3 1749.78 2
2 2 4 45942.4 1479.28 9
-2 -2 -5 18406.6 1181.40 2
2 2 5 18858.2 987.045 9
2 2 6 1023.39 246.365 9
2 2 7 3728.26 488.727 9
2 2 8 3464.50 366.187 22
2 2 8 3714.39 323.112 30
2 2 9 778.588 190.319 22
2 2 9 670.362 141.911 30
2 2 10 -37.6870 57.4471 22
2 2 10 9.12609 32.5957 30
2 2 11 114.952 44.5072 22
2 2 11 247.315 77.6013 30
2 2 12 560.974 97.3754 22
2 2 12 591.542 90.3289 30
-2 -3 11 30.4377 22.8962 14
-2 -3 11 139.854 48.0780 32
-2 -3 11 123.328 48.9253 26
-2 -3 10 1162.00 158.266 32
-2 -3 10 861.640 163.114 26
-2 -3 9 188.693 82.7381 32
-2 -3 9 279.978 106.879 26
-2 -3 8 1119.93 175.557 32
-2 -3 8 815.633 181.596 26
-2 -3 7 114.177 63.7519 32
-2 -3 7 93.6120 78.7450 26
-2 -3 6 568.014 276.153 11
-2 -3 5 -65.0513 84.2008 11
2 3 -4 501.542 174.954 1
-2 -3 3 19917.5 954.849 6
2 3 -3 21370.0 1113.70 1
2 3 -2 5709.19 563.433 1
-2 -3 2 5798.16 504.453 6
-2 -3 1 8146.62 577.403 4
-2 -3 1 8813.11 560.487 6
-2 -3 0 -6.23115 37.3773 4
-2 -3 0 23.3315 37.4094 6
-2 -3 -1 -13.7585 34.8093 4
2 3 3 86.8211 66.5617 9
2 3 4 2483.78 373.471 9
2 3 5 165.957 106.765 9
2 3 6 1013.23 259.423 9
-2 -3 -7 3073.97 277.824 29
2 3 8 1103.78 204.809 22
2 3 9 651.370 160.240 22
2 3 9 446.161 128.266 30
2 3 10 440.130 132.614 22
2 3 10 264.836 81.7572 30
2 3 11 74.5835 36.3060 30
2 3 11 133.536 72.3828 22
2 3 12 56.4024 35.7383 22
-2 -4 11 419.509 73.2852 32
-2 -4 11 293.793 71.5225 26
-2 -4 10 183.913 65.5332 32
-2 -4 10 198.028 73.7280 26
-2 -4 9 1891.47 203.697 32
-2 -4 9 1890.23 256.559 26
-2 -4 8 143.273 69.8826 32
-2 -4 8 124.521 74.4291 26
-2 -4 7 966.145 160.243 32
-2 -4 7 1158.26 226.266 26
-2 -4 6 543.132 122.361 32
-2 -4 6 814.240 168.895 31
-2 -4 6 675.535 168.525 26
-2 -4 5 3121.11 521.400 4
-2 -4 4 6800.23 735.948 4
-2 -4 3 10186.1 848.189 4
-2 -4 3 9761.18 771.933 6
2 4 -3 11014.6 838.954 1
-2 -4 2 171749. 3246.12 4
2 4 -2 170435. 3311.55 1
-2 -4 2 171190. 3045.00 6
-2 -4 1 28499.9 1224.56 4
-2 -4 1 29050.4 1156.14 6
-2 -4 0 3508.05 405.894 6
-2 -4 0 3716.98 426.794 4
-2 -4 -1 6206.22 556.980 6
-2 -4 -2 2540.74 366.644 6
2 4 2 2479.52 367.365 9
2 4 3 13844.6 863.590 9
2 4 4 1240.60 276.203 9
2 4 5 2957.92 448.027 9
-2 -4 -6 1808.71 203.960 29
2 4 7 619.076 157.759 22
-2 -4 -7 376.429 103.029 29
2 4 8 10772.3 632.839 22
2 4 9 897.645 183.540 22
2 4 10 35.5044 46.9184 22
2 4 11 -46.6102 26.7862 22
-2 -5 10 809.479 106.151 32
-2 -5 10 888.371 141.140 26
-2 -5 9 591.708 103.592 32
-2 -5 9 607.333 141.063 26
-2 -5 8 43.1979 43.8293 32
-2 -5 8 -19.0646 45.4298 26
-2 -5 7 327.873 91.3703 32
-2 -5 7 403.403 130.984 26
-2 -5 6 34.8680 48.2195 32
-2 -5 6 43.9347 61.0873 26
-2 -5 5 47.1691 44.4377 13
-2 -5 5 161.958 98.0938 17
-2 -5 5 74.6349 41.2374 31
-2 -5 5 249.731 115.675 26
-2 -5 4 291.330 154.470 4
-2 -5 4 128.158 68.9660 26
-2 -5 3 619.247 227.485 4
-2 -5 3 517.177 186.472 6
-2 -5 2 1556.14 343.952 4
-2 -5 2 1485.25 305.916 6
2 5 -2 1368.28 324.301 1
-2 -5 1 626.079 207.375 4
-2 -5 1 801.953 224.441 6
-2 -5 0 10214.6 797.757 6
2 5 0 9860.95 785.873 9
-2 -5 -1 4470.15 542.591 6
2 5 1 4942.07 554.416 9
-2 -5 -2 1225.62 270.580 6
2 5 2 1208.24 282.227 9
-2 -5 -3 2858.83 425.777 6
2 5 3 3085.57 439.989 9
-2 -5 -4 117.630 103.307 6
2 5 4 124.867 74.4493 9
-2 -5 -5 534.608 111.034 29
2 5 6 2339.71 288.086 22
-2 -5 -6 2228.22 235.400 29
2 5 7 2836.63 328.115 22
-2 -5 -7 2672.38 282.534 33
2 5 8 1682.92 253.840 22
2 5 9 -68.5947 64.0783 22
2 5 10 446.423 110.272 22
2 5 11 1155.66 130.644 22
-2 -6 10 104.626 59.3334 23
-2 -6 10 140.784 46.3696 26
-2 -6 9 117.892 47.0875 32
-2 -6 9 184.395 69.9503 26
-2 -6 8 941.941 128.279 32
-2 -6 8 1475.46 215.095 26
-2 -6 7 921.345 190.268 31
-2 -6 7 90.9734 37.6805 26
-2 -6 6 161.033 97.9411 31
-2 -6 6 -61.0905 55.1477 26
-2 -6 5 113.718 71.5712 13
-2 -6 5 37.3756 71.3070 17
-2 -6 5 119.410 71.3527 31
-2 -6 5 49.2619 49.2925 26
-2 -6 4 717.253 153.439 13
-2 -6 4 728.187 196.900 17
-2 -6 4 485.848 122.518 31
-2 -6 4 667.275 161.448 26
-2 -6 3 4228.69 357.545 13
-2 -6 3 3626.45 404.243 17
-2 -6 3 3281.30 304.363 31
-2 -6 3 3898.77 393.526 26
-2 -6 3 2872.48 282.804 25
-2 -6 2 9049.76 642.691 23
-2 -6 2 9651.32 519.573 13
-2 -6 2 9357.49 608.759 26
-2 -6 1 591.958 218.288 6
-2 -6 0 215.097 107.538 6
-2 -6 -1 2761.80 469.772 6
2 6 1 2070.63 378.084 9
2 6 2 2357.09 412.511 9
-2 -6 -3 756.494 131.066 29
-2 -6 -4 60.8171 45.3077 29
-2 -6 -5 154.110 66.9422 29
-2 -6 -6 2995.05 304.864 33
2 6 7 1107.71 202.283 22
-2 -6 -7 1329.60 200.757 33
2 6 8 101.608 70.9054 22
2 6 9 81.7453 49.8392 22
2 6 10 3.95914 21.8172 22
-2 -7 9 75.0683 40.5670 23
-2 -7 9 100.439 44.8951 26
-2 -7 8 404.804 100.153 23
-2 -7 8 456.659 101.291 26
-2 -7 7 -1.55338 45.1685 23
-2 -7 7 25.9731 39.6717 26
-2 -7 6 2602.99 255.260 31
-2 -7 6 1777.64 236.347 26
-2 -7 5 168.606 90.4780 23
-2 -7 5 7.88414 35.7516 13
-2 -7 5 92.2865 66.4000 17
-2 -7 5 181.397 84.0237 31
-2 -7 5 64.3695 64.2546 26
-2 -7 5 79.1948 58.7284 25
-2 -7 4 441.550 146.614 23
-2 -7 4 403.576 108.944 13
-2 -7 4 582.745 167.698 17
-2 -7 4 610.185 124.299 31
-2 -7 4 496.888 138.166 26
-2 -7 4 443.803 105.321 25
-2 -7 3 107.881 68.1202 23
-2 -7 3 132.382 46.8806 13
-2 -7 3 113.479 65.9076 17
-2 -7 3 -64.0866 58.2521 31
-2 -7 3 241.780 115.597 26
-2 -7 3 165.783 57.4139 25
-2 -7 2 1763.26 279.708 23
-2 -7 2 1906.14 234.957 13
-2 -7 2 1698.10 266.918 17
-2 -7 2 1585.96 203.144 31
-2 -7 2 2226.56 309.333 26
-2 -7 1 1206.06 193.205 13
-2 -7 0 349.749 101.167 13
-2 -7 0 288.373 105.947 27
-2 -7 -1 3759.36 325.811 13
-2 -7 -1 4087.71 365.900 27
-2 -7 -2 2668.36 264.984 13
-2 -7 -2 4106.25 356.408 27
-2 -7 -3 84.6032 47.8193 27
-2 -7 -4 2539.61 294.488 33
-2 -7 -5 2343.73 282.790 33
-2 -7 -6 8136.37 496.052 33
-2 -7 -7 742.880 140.679 33
-2 -7 -8 810.890 126.168 33
-2 -7 -9 600.759 102.495 15
-2 -8 7 32.2328 30.0352 23
-2 -8 7 78.4405 41.9391 26
-2 -8 6 63.5999 26.3371 23
-2 -8 6 18.4718 25.9681 26
-2 -8 5 52.6015 45.8853 23
-2 -8 5 174.173 69.9820 13
-2 -8 5 61.3798 56.2018 26
-2 -8 4 176.581 76.6834 23
-2 -8 4 140.685 50.6956 13
-2 -8 4 220.245 93.0171 17
-2 -8 4 392.702 100.260 31
-2 -8 4 413.327 133.058 26
-2 -8 4 321.803 96.8215 25
-2 -8 3 -38.7624 47.9256 13
-2 -8 3 -19.5962 42.8196 17
-2 -8 3 -30.6610 40.4578 25
-2 -8 2 570.118 135.044 13
-2 -8 2 384.297 126.132 17
-2 -8 2 773.511 149.942 25
-2 -8 1 339.157 106.207 13
-2 -8 0 224.938 90.0316 13
-2 -8 -1 279.415 110.144 13
-2 -8 -1 210.604 99.1482 33
-2 -8 -1 273.523 115.711 27
-2 -8 -1 128.851 78.7048 15
-2 -8 -2 1097.24 176.736 13
-2 -8 -2 1221.82 216.951 33
-2 -8 -2 1141.91 192.307 27
-2 -8 -2 1086.28 203.879 15
-2 -8 -3 144.648 80.6615 33
-2 -8 -3 108.606 62.8932 27
-2 -8 -4 121.563 58.1019 33
-2 -8 -4 80.3385 48.5975 27
-2 -8 -5 928.836 169.246 33
-2 -8 -5 694.510 144.412 27
-2 -8 -6 1161.17 165.075 33
-2 -8 -6 869.934 154.106 27
-2 -8 -7 165.597 62.7849 33
-2 -8 -7 33.4879 42.6183 27
-2 -8 -7 176.160 74.0938 15
-2 -8 -8 -22.2061 24.4624 27
-2 -8 -8 -5.35603 18.7376 15
-2 -9 4 1188.48 146.720 13
-2 -9 4 1427.03 170.346 25
-2 -9 3 249.642 87.3383 13
-2 -9 3 27.4568 34.3008 17
-2 -9 3 167.692 64.3127 25
-2 -9 2 543.101 122.344 13
-2 -9 2 437.387 100.832 25
-2 -9 1 382.665 118.849 13
-2 -9 1 6.48965 28.6347 25
-2 -9 0 2245.04 248.859 13
-2 -9 -1 437.269 133.975 13
-2 -9 -2 31.5938 48.4709 33
-2 -9 -2 170.871 71.2297 15
-2 -9 -3 8.14348 40.2604 33
-2 -9 -3 76.1589 69.3880 15
-2 -9 -4 44.7232 40.3957 33
-2 -9 -4 -0.28933 32.3097 27
-2 -9 -4 -10.7162 45.4241 15
-2 -9 -5 404.710 92.1317 33
-2 -9 -5 338.107 87.2072 27
-2 -9 -5 384.558 116.397 15
-2 -9 -6 1261.46 135.058 33
-2 -9 -6 1157.12 140.824 27
-2 -9 -6 1227.83 154.795 15
-2 -10 2 278.195 62.5615 25
-2 -10 1 345.607 64.7745 25
-2 -10 0 4.55477 22.8549 25
-2 -10 -1 -13.5549 22.3893 25
-2 -10 -2 721.909 97.1874 25
-2 -10 -3 46.5898 24.3473 25
3 -7 -4 18.5799 23.7536 20
3 -7 -3 753.992 111.354 20
3 -7 -3 668.154 134.284 18
3 -7 -2 248.872 65.4436 24
3 -7 -2 311.382 81.2515 20
3 -7 -2 355.523 98.5990 18
3 -7 -1 275.253 77.0521 24
3 -7 -1 431.456 118.833 18
3 -7 0 278.939 78.3167 24
3 -7 0 362.573 115.811 18
3 -7 1 281.934 80.7079 24
3 -7 1 263.779 96.4945 18
3 -7 2 1913.62 207.566 24
3 -7 2 2096.66 260.498 18
3 -7 3 190.996 60.8307 24
3 -7 3 151.915 74.1611 18
3 -7 4 117.895 49.5108 24
3 -7 4 107.530 66.8344 18
3 -7 5 179.795 47.8399 24
3 -6 -6 4208.50 262.972 20
3 -6 -5 163.665 60.7601 20
3 -6 -4 233.009 73.7828 20
3 -6 -3 148.071 69.2924 20
3 -6 -2 -24.4136 26.0932 24
3 -6 -2 -19.9894 46.2513 20
3 -6 -1 286.109 93.1932 24
3 -6 -1 392.709 113.526 20
3 -6 0 2505.21 282.244 24
3 -6 0 2473.02 280.161 20
3 -6 1 2561.53 301.350 24
3 -6 2 540.450 142.958 24
3 -6 3 1102.29 192.103 24
3 -6 3 1335.73 232.241 18
3 -6 4 1633.98 219.199 24
3 -6 4 1383.08 230.758 18
3 -6 5 104.006 69.8720 24
3 -6 5 -14.3694 48.4688 18
3 -6 6 -32.4442 38.5788 24
-3 6 -6 27.7356 41.5126 16
3 -6 7 98.1347 39.0032 24
3 -5 -8 81.3975 33.4270 20
3 -5 -7 -29.8049 25.2156 20
3 -5 -6 259.241 80.0392 20
-3 5 5 -72.6370 44.4895 21
3 -5 -5 -4.50316 35.6020 20
-3 5 4 72.6114 48.8690 21
3 -5 -4 20.2531 31.4267 20
-3 5 3 2035.80 246.833 21
3 -5 -3 2109.18 268.287 20
3 -5 -2 1902.35 256.658 20
3 -5 -1 1364.99 219.413 20
3 -5 0 1298.68 218.873 24
3 -5 0 1203.19 207.384 20
3 -5 1 1177.26 216.068 24
3 -5 1 1165.78 208.071 20
3 -5 2 4933.44 448.589 24
3 -5 3 8012.72 567.516 24
3 -5 4 52.6486 53.7123 24
3 -5 4 83.4441 63.2157 18
3 -5 5 77.2164 55.4927 24
3 -5 5 43.2187 43.7590 18
3 -5 6 0.08298 46.1008 24
-3 5 -6 -20.5570 24.4780 16
3 -5 7 -0.20253 24.6113 24
3 -5 7 56.0106 33.1521 30
3 -5 8 24.7496 29.6276 24
3 -4 -9 222.800 56.8433 20
-3 4 8 412.422 101.297 12
3 -4 -8 449.572 95.3424 20
-3 4 7 353.628 114.539 12
3 -4 -7 380.673 99.8606 20
-3 4 6 2187.90 258.202 21
-3 4 6 1590.30 253.749 12
3 -4 -6 1680.05 232.958 20
-3 4 5 3799.83 358.250 21
-3 4 5 2776.23 354.177 12
3 -4 -5 3037.68 326.104 20
-3 4 4 1259.55 213.997 21
-3 4 4 647.956 190.257 12
3 -4 -4 1206.03 219.812 20
-3 4 3 12199.4 630.530 21
3 -4 -3 13328.8 720.562 20
3 -4 -2 7492.27 543.530 20
3 -4 -1 2768.00 328.934 20
3 -4 0 591.368 144.881 20
3 -4 1 4150.62 384.197 20
3 -4 2 18869.9 805.640 20
3 -4 3 282.016 98.2862 24
3 -4 4 6022.22 482.923 24
3 -4 5 1815.45 258.902 24
3 -4 6 132.468 68.6062 24
-3 4 -6 184.821 82.3857 16
3 -4 7 83.2145 57.8665 24
-3 4 -7 34.3159 43.0443 16
3 -4 8 231.004 74.4333 24
3 -4 8 238.043 63.6043 30
3 -4 9 610.884 88.5113 30
3 -4 9 618.248 105.068 24
-3 3 9 24.1417 36.8110 12
3 -3 -9 35.9939 21.8921 20
-3 3 8 604.778 135.625 12
-3 3 7 88.3864 85.9583 12
-3 3 6 6029.32 442.779 21
-3 3 6 5401.15 482.362 12
-3 3 5 -7.48518 31.5246 21
-3 3 5 -3.08433 63.5749 12
-3 3 4 8130.52 541.705 21
-3 3 4 7285.04 555.585 12
3 -3 -4 7425.29 540.096 20
-3 3 3 15292.9 721.168 21
-3 3 3 17778.0 834.953 12
3 -3 -3 15815.3 802.185 20
-3 3 2 735.414 150.551 21
-3 3 2 683.187 190.491 12
3 -3 -2 870.544 188.414 20
3 -3 -1 -23.2774 50.5104 20
3 -3 0 237.943 96.0330 20
3 -3 1 77.0102 50.3271 20
3 -3 2 4420.62 376.333 20
-3 3 -2 4110.50 329.509 28
-3 3 -3 20.6064 24.4818 28
-3 3 -4 6196.49 417.772 28
3 -3 5 267.795 101.585 24
3 -3 6 9898.87 592.998 24
-3 3 -6 11316.6 699.407 16
3 -3 7 4784.35 393.566 24
-3 3 -7 4918.65 422.289 16
3 -3 8 82.0498 50.2805 24
3 -3 9 97.4754 55.8986 24
3 -3 9 138.439 59.5170 30
3 -3 10 712.312 99.7575 30
-3 2 10 41.3294 21.8637 12
-3 2 9 18.2117 28.5904 12
-3 2 8 31.0635 47.4537 12
-3 2 7 4303.52 433.649 12
-3 2 6 95.6362 53.9208 21
-3 2 6 94.1835 49.7525 12
-3 2 5 2151.73 275.749 21
-3 2 5 1980.57 281.899 12
-3 2 4 4373.43 393.740 21
-3 2 4 4463.56 404.653 12
-3 2 3 98.7130 55.6130 21
-3 2 3 69.1244 83.8502 12
3 -2 -2 46.0829 70.7502 5
-3 2 1 120.351 79.8782 2
-3 2 0 199.719 127.227 2
-3 2 -1 193.377 142.366 2
-3 2 -2 3105.12 512.536 2
-3 2 -3 3567.06 557.625 2
-3 2 -4 599.677 129.092 28
-3 2 -5 1103.99 230.236 16
-3 2 -6 131.253 91.1254 16
3 -2 7 2451.66 290.741 24
-3 2 -7 2781.73 340.442 16
3 -2 8 -44.5937 56.8794 24
3 -2 9 314.022 85.7369 30
3 -2 10 233.814 72.3460 30
3 -2 11 67.8321 28.7161 30
-3 1 10 943.148 111.695 14
-3 1 10 1144.51 150.428 12
-3 1 9 992.749 144.209 14
-3 1 9 1013.67 183.527 12
-3 1 9 854.213 134.203 19
-3 1 8 1257.40 188.999 14
-3 1 8 1135.51 220.990 12
-3 1 7 374.396 112.848 14
-3 1 7 551.575 159.028 12
-3 1 6 25.4151 28.7683 14
-3 1 6 52.9579 69.6803 12
-3 1 5 6318.68 435.005 14
-3 1 5 7605.03 529.087 12
-3 1 4 7146.96 496.713 21
-3 1 4 6747.84 488.301 12
3 -1 -3 1324.53 350.653 5
3 -1 -2 17784.8 1305.31 5
3 -1 -1 4279.67 629.016 5
3 -1 0 19210.9 1128.33 1
-3 1 0 18816.7 1135.24 2
-3 1 -1 20158.2 1181.95 2
-3 1 -2 752.904 232.517 2
-3 1 -3 33.2975 36.5994 2
-3 1 -4 3678.26 558.782 3
-3 1 -4 4465.98 615.902 2
-3 1 -5 28288.4 1125.02 16
-3 1 -5 26685.5 940.565 28
-3 1 -6 11116.3 711.367 16
-3 1 -7 865.637 201.796 16
3 -1 8 3349.78 336.412 24
3 -1 9 54.6832 34.7073 30
3 -1 10 542.478 111.833 30
3 -1 11 295.307 69.1677 30
-3 0 10 -38.3822 31.7732 14
-3 0 10 -19.3795 14.5781 12
-3 0 9 62.4967 51.0511 14
-3 0 9 -8.33601 27.4247 12
-3 0 8 64.6961 59.1812 12
-3 0 8 118.648 64.7666 19
-3 0 8 121.111 66.7401 32
-3 0 7 1754.86 259.337 12
-3 0 7 1945.50 230.180 32
-3 0 6 2.17698 32.4233 12
-3 0 6 80.1627 34.2775 32
-3 0 5 94.4672 44.9169 14
-3 0 5 145.790 78.3662 12
-3 0 5 208.141 85.2819 32
3 0 -4 63.3172 84.1146 5
3 0 -3 388.847 176.463 5
3 0 -2 1447.74 312.137 1
3 0 -2 1865.39 426.732 5
3 0 -1 126.649 95.0436 1
3 0 -1 108.468 127.332 5
3 0 0 453.587 162.833 1
-3 0 -1 4.56226 30.2697 2
3 0 1 0.34899 69.5783 1
-3 0 -2 346.452 135.568 2
-3 0 -3 1576.66 322.476 2
-3 0 -4 1025.68 288.598 2
-3 0 -5 56.9636 84.0934 2
-3 0 -5 102.342 103.883 3
-3 0 -6 55.2307 37.4387 16
-3 0 -7 1415.10 261.516 16
3 0 8 72.8272 62.4528 30
3 0 9 132.884 67.7923 30
3 0 10 112.483 49.0553 30
3 0 11 44.5176 30.6752 30
-3 -1 10 286.132 69.6654 14
-3 -1 9 107.348 67.4379 14
-3 -1 9 67.1773 32.0135 32
-3 -1 8 613.337 122.112 32
-3 -1 7 58.8862 41.6451 19
-3 -1 7 1.24490 39.6933 32
-3 -1 6 68.7442 58.4730 32
-3 -1 5 3963.13 363.284 14
-3 -1 5 3398.48 369.209 12
-3 -1 5 4444.38 340.603 32
3 1 -4 3086.68 539.919 5
3 1 -3 11.8841 61.5032 1
3 1 -3 113.026 124.772 5
3 1 -2 778.449 227.043 1
3 1 -2 768.034 259.920 5
3 1 -1 23795.3 1348.89 5
3 1 -1 22916.9 1247.51 1
3 1 0 320.082 158.769 1
3 1 1 99.8504 80.7365 1
3 1 2 -28.9159 52.0100 1
-3 -1 -3 451.170 178.276 2
3 1 3 258.347 135.946 1
3 1 3 397.345 139.675 9
-3 -1 -4 4613.50 584.398 2
-3 -1 -5 586.684 222.335 2
-3 -1 -6 471.291 162.588 16
3 1 7 144.830 55.8093 30
-3 -1 -7 170.488 92.6784 16
3 1 8 137.254 57.5582 30
3 1 9 527.823 142.016 22
3 1 9 378.269 97.8811 30
3 1 10 537.786 125.668 22
3 1 10 623.713 118.361 30
3 1 11 -18.3006 28.6234 30
-3 -2 10 1.45316 17.9649 14
-3 -2 10 28.6561 20.1693 32
-3 -2 9 -9.17540 40.3959 14
-3 -2 9 -39.2126 34.3609 32
-3 -2 8 1310.81 192.921 14
-3 -2 8 1591.92 195.200 32
-3 -2 7 110.397 76.2527 14
-3 -2 7 96.8981 66.7351 32
-3 -2 6 306.509 101.287 14
-3 -2 6 219.513 81.6137 19
-3 -2 6 240.763 83.3242 32
-3 -2 5 2909.21 322.189 14
-3 -2 5 2294.86 275.527 19
-3 -2 5 2277.53 247.867 32
3 2 -4 1484.80 366.938 1
3 2 -4 896.175 291.402 5
3 2 -3 1816.20 409.105 5
3 2 -3 2442.10 431.842 1
3 2 -2 26.8215 39.0464 1
3 2 -2 45.5723 67.4408 5
3 2 -1 -58.7473 95.8794 1
3 2 0 5604.00 618.357 1
3 2 1 3267.87 460.350 1
3 2 2 3884.98 497.545 1
3 2 3 391.617 179.073 9
-3 -2 -4 1124.87 308.741 2
3 2 4 1077.58 274.119 9
-3 -2 -5 271.694 170.616 2
-3 -2 -6 314.621 139.519 16
-3 -2 -6 261.556 72.5476 29
-3 -2 -7 4628.77 503.463 16
-3 -2 -7 4227.87 308.094 29
3 2 9 79.5404 55.9442 22
3 2 9 55.9888 47.9419 30
3 2 10 352.495 106.917 22
3 2 10 274.199 79.2870 30
3 2 11 60.4499 38.1712 22
-3 -3 10 430.698 81.4188 14
-3 -3 10 751.654 104.861 32
-3 -3 9 975.543 142.278 14
-3 -3 9 1240.30 151.758 32
-3 -3 8 -38.3569 36.9668 14
-3 -3 8 62.8502 44.3020 32
-3 -3 7 1122.85 188.296 14
-3 -3 7 1223.14 183.693 32
-3 -3 6 2302.04 286.650 14
-3 -3 6 2092.09 241.565 32
-3 -3 5 1335.70 221.339 14
-3 -3 5 782.514 162.731 19
-3 -3 5 1080.67 159.607 32
-3 -3 4 878.309 180.431 14
-3 -3 4 717.033 171.754 23
-3 -3 4 666.340 149.551 19
-3 -3 4 602.652 124.946 32
3 3 -3 -62.1307 87.2629 1
3 3 -2 40.6838 59.0712 1
3 3 -1 2330.17 433.073 1
3 3 0 -29.7726 93.0148 1
3 3 1 3794.38 508.927 1
-3 -3 -2 255.107 136.655 6
3 3 3 1301.97 315.290 9
3 3 4 1705.48 367.621 9
-3 -3 -5 847.446 224.225 16
-3 -3 -5 807.003 140.883 29
-3 -3 -6 817.979 230.338 16
-3 -3 -6 859.576 158.828 29
-3 -3 -7 1595.48 305.980 16
-3 -3 -7 2358.47 250.293 29
3 3 8 47.2929 53.3650 22
3 3 9 1.26637 30.9142 22
3 3 10 0.67573 31.8628 22
3 3 11 -8.14421 24.4901 22
-3 -4 10 35.1998 14.5753 32
-3 -4 9 28.2324 24.1330 14
-3 -4 9 -54.6970 48.7520 23
-3 -4 9 -26.2776 36.7265 32
-3 -4 8 156.368 68.5227 14
-3 -4 8 143.746 73.4721 23
-3 -4 8 156.507 53.0656 32
-3 -4 7 1589.69 207.555 14
-3 -4 7 1485.89 243.835 23
-3 -4 7 1641.37 202.694 32
-3 -4 6 3126.37 305.760 14
-3 -4 6 3329.34 293.410 13
-3 -4 6 3187.78 291.617 32
-3 -4 6 2991.36 324.104 26
-3 -4 5 372.666 109.413 14
-3 -4 5 325.556 117.476 23
-3 -4 5 265.516 88.8375 32
-3 -4 5 205.442 85.1004 26
-3 -4 4 5100.48 404.436 14
-3 -4 4 5420.15 485.445 23
-3 -4 4 3862.48 304.716 32
-3 -4 4 4232.95 389.271 26
-3 -4 3 2404.64 326.441 23
-3 -4 3 2077.37 269.281 26
-3 -4 3 2252.52 264.708 14
3 4 -2 5550.28 744.358 1
3 4 -1 3159.49 568.271 1
3 4 0 292.941 178.365 1
-3 -4 -2 327.318 158.465 6
3 4 2 420.637 188.810 9
-3 -4 -3 10699.7 906.195 6
3 4 3 10357.7 889.705 9
-3 -4 -4 6925.48 659.754 16
-3 -4 -4 6018.00 370.498 29
-3 -4 -5 390.892 172.484 16
-3 -4 -5 299.165 92.8393 29
-3 -4 -6 2874.70 409.742 16
-3 -4 -6 3695.78 312.969 29
-3 -4 -7 1510.49 277.394 16
-3 -4 -7 2254.58 248.825 29
3 4 8 581.040 138.685 22
3 4 9 5.81758 36.6365 22
3 4 10 39.6549 42.8641 22
3 4 11 378.553 73.0256 22
-3 -5 9 267.096 80.6252 23
-3 -5 9 229.208 52.4378 32
-3 -5 8 -3.82936 40.8975 23
-3 -5 8 20.9150 22.2397 32
-3 -5 8 -3.60298 28.2602 26
-3 -5 7 -6.63319 42.2503 23
-3 -5 7 -41.4258 30.6596 32
-3 -5 7 35.1293 38.1898 26
-3 -5 6 -12.7464 42.0068 23
-3 -5 6 -24.0211 36.6922 13
-3 -5 6 14.8940 34.3670 32
-3 -5 6 36.8265 34.2862 26
-3 -5 5 128.266 77.3818 23
-3 -5 5 77.0767 45.4079 13
-3 -5 5 85.3840 55.2414 26
-3 -5 4 6082.79 549.742 23
-3 -5 4 6228.25 408.410 13
-3 -5 4 6113.43 504.159 26
-3 -5 3 1743.02 302.155 23
-3 -5 3 1423.86 242.993 26
-3 -5 2 2151.23 343.066 23
-3 -5 2 1708.82 270.998 26
-3 -5 1 81.0644 92.0687 23
-3 -5 1 56.5618 68.2489 26
-3 -5 0 67.9762 54.8326 14
-3 -5 0 -14.9227 58.1305 23
-3 -5 0 -46.7353 77.1239 13
-3 -5 -1 151.828 67.7829 14
-3 -5 -1 102.027 59.1629 13
-3 -5 -2 -71.7932 68.3398 16
-3 -5 -2 32.2558 32.1466 29
-3 -5 -3 384.339 157.738 16
-3 -5 -3 537.364 112.145 29
-3 -5 -4 25.2926 77.4882 16
-3 -5 -4 4.00950 27.2371 29
-3 -5 -5 118.263 58.5701 29
-3 -5 -6 2314.39 237.508 29
3 5 7 862.506 171.649 22
-3 -5 -7 711.697 135.742 29
3 5 8 292.407 93.6874 22
3 5 9 200.393 73.7346 22
3 5 10 11.1297 32.2086 22
-3 -6 8 93.6213 54.7779 23
-3 -6 8 158.806 60.1018 26
-3 -6 7 17.6441 44.6652 23
-3 -6 7 85.5697 50.9548 26
-3 -6 6 444.192 127.055 23
-3 -6 6 500.131 101.504 13
-3 -6 6 508.820 129.361 26
-3 -6 5 1868.47 296.244 23
-3 -6 5 1705.36 205.868 13
-3 -6 5 2080.05 279.344 26
-3 -6 4 574.976 187.181 23
-3 -6 4 632.870 136.643 13
-3 -6 4 541.763 158.248 26
-3 -6 3 32366.4 1353.25 23
-3 -6 3 32571.0 979.882 13
-3 -6 3 32954.5 1229.07 26
-3 -6 2 9386.58 744.479 23
-3 -6 2 9113.42 550.296 13
-3 -6 2 9749.33 687.618 26
-3 -6 1 380.945 177.628 23
-3 -6 1 438.234 145.280 13
-3 -6 0 1263.77 209.993 13
-3 -6 0 802.884 138.101 29
-3 -6 -1 226.926 93.3097 13
-3 -6 -1 165.232 61.0381 29
-3 -6 -2 2639.86 243.287 29
-3 -6 -3 830.087 140.315 29
-3 -6 -4 353.024 92.9733 29
-3 -6 -5 549.693 112.063 29
3 6 6 136.274 67.5143 22
-3 -6 -6 14.8213 25.9588 29
3 6 7 4297.53 355.634 22
-3 -6 -7 5117.58 343.662 33
3 6 8 501.386 113.541 22
3 6 9 -17.6594 36.2734 22
-3 -7 7 7.99233 41.3382 23
-3 -7 7 -9.41297 25.0897 26
-3 -7 6 49.6367 46.9915 23
-3 -7 6 37.9940 18.7801 13
-3 -7 5 12.4361 62.9466 23
-3 -7 5 -63.5378 56.3481 13
-3 -7 5 47.3102 49.1330 26
-3 -7 4 121.454 58.1908 23
-3 -7 4 209.261 82.7860 13
-3 -7 4 222.550 105.496 26
-3 -7 3 360.565 153.439 23
-3 -7 3 315.755 110.398 13
-3 -7 2 344.757 164.547 23
-3 -7 2 203.841 94.3963 13
-3 -7 1 2700.44 304.988 13
-3 -7 0 1708.32 241.940 13
-3 -7 -1 80.2223 57.4927 13
-3 -7 -1 176.620 88.0500 27
-3 -7 -2 778.935 132.929 29
-3 -7 -2 1258.51 194.226 27
-3 -7 -3 138.934 59.6914 29
-3 -7 -3 238.477 95.0462 27
-3 -7 -4 343.935 89.1909 29
-3 -7 -4 480.145 112.411 27
-3 -7 -5 451.509 98.9987 29
-3 -7 -5 674.192 127.780 27
-3 -7 -6 1540.18 196.914 33
-3 -7 -6 983.711 154.393 27
-3 -7 -7 731.308 121.260 33
-3 -7 -7 567.601 101.343 27
-3 -7 -8 -3.84989 18.2757 27
-3 -8 5 100.957 71.4848 23
-3 -8 5 40.8508 31.5805 13
-3 -8 4 639.209 102.311 13
-3 -8 3 2757.92 237.393 13
-3 -8 2 21.3896 35.4899 13
-3 -8 1 -0.65935 65.4792 13
-3 -8 0 291.882 77.6610 13
-3 -8 -1 669.909 130.012 13
-3 -8 -1 215.622 98.2870 33
-3 -8 -2 457.466 134.604 33
-3 -8 -3 186.996 97.5418 33
-3 -8 -3 185.657 71.1667 27
-3 -8 -4 132.594 66.8288 33
-3 -8 -4 89.0652 45.5257 27
-3 -8 -5 800.024 141.752 33
-3 -8 -5 537.629 102.359 27
-3 -8 -6 495.373 93.1286 33
-3 -8 -6 269.425 64.8441 27
-3 -8 -7 24.1073 14.6291 27
-3 -8 -7 107.085 42.8705 15
-3 -9 4 44.2390 27.8616 13
-3 -9 3 441.208 76.5135 13
-3 -9 2 594.999 103.013 13
-3 -9 1 164.997 69.1006 13
-3 -9 0 886.958 131.167 13
-3 -9 0 388.372 79.1999 25
-3 -9 -1 1156.05 148.854 13
-3 -9 -1 939.792 127.489 25
-3 -9 -2 84.3288 34.8259 33
-3 -9 -3 119.385 50.6644 33
-3 -9 -4 424.968 85.7463 33
-3 -9 -4 216.942 58.8247 15
-3 -9 -5 2126.96 157.333 33
4 -6 -1 317.973 82.6518 18
4 -6 0 177.396 65.9848 18
4 -6 1 53.8215 37.3475 18
-4 6 -1 5.95147 19.5088 16
4 -6 2 303.426 78.4645 18
-4 6 -2 252.110 70.8309 16
-4 6 -3 351.969 77.1098 16
4 -5 -4 484.194 81.3066 20
4 -5 -3 60.4681 27.0257 20
4 -5 -2 49.2655 26.8015 20
-4 5 0 38.3569 32.1396 16
-4 5 -1 1533.98 201.996 16
-4 5 -2 254.997 85.5205 16
4 -5 3 94.5837 64.4723 18
-4 5 -3 94.1713 50.9294 16
-4 5 -4 428.778 99.2904 16
-4 5 -5 -0.81797 24.2311 16
4 -4 -6 143.331 41.5077 20
-4 4 6 158.188 49.1901 19
4 -4 -5 46.2766 22.7932 20
-4 4 5 30.3466 21.2507 19
4 -4 -4 163.971 58.2758 20
-4 4 4 148.365 57.5649 19
4 -4 -3 -2.78721 25.2877 20
-4 4 3 14.0884 18.3694 19
4 -4 -2 281.336 90.7369 20
4 -4 -1 2009.21 240.513 20
4 -4 0 2585.17 274.408 20
-4 4 0 2853.50 300.478 16
-4 4 0 2410.29 251.881 28
-4 4 -1 465.947 114.569 28
-4 4 -1 476.774 131.105 16
-4 4 -2 986.428 176.677 16
-4 4 -2 882.929 144.963 28
-4 4 -3 1750.61 233.970 16
-4 4 -4 94.5598 64.0682 16
-4 4 -5 60.6905 50.3486 16
-4 4 -6 306.532 86.6147 16
4 -4 7 34.6583 21.2247 30
4 -3 -7 73.5025 28.9884 20
-4 3 7 84.9027 35.0862 19
4 -3 -6 52.1865 35.3908 20
-4 3 6 65.6347 31.0926 19
4 -3 -5 253.165 71.9520 20
4 -3 -4 860.534 147.824 20
4 -3 -3 1223.90 190.500 20
4 -3 -2 1190.87 194.033 20
-4 3 2 878.580 148.114 19
4 -3 -1 1591.37 231.984 20
4 -3 0 1680.89 240.408 20
-4 3 0 1371.14 222.241 16
-4 3 -1 4391.84 411.287 16
-4 3 -1 4932.25 384.035 28
-4 3 -2 8959.99 593.366 16
-4 3 -2 8859.59 499.372 28
-4 3 -3 200.881 76.0152 28
-4 3 -3 270.560 108.950 16
-4 3 -4 33.3037 67.8989 16
-4 3 -5 -1.83387 41.2883 16
-4 3 -6 34.2861 64.9099 16
-4 3 -7 87.6828 59.9044 16
4 -3 8 337.124 61.7901 30
-4 2 8 88.1948 39.0022 19
4 -2 -7 369.613 76.7541 20
-4 2 7 425.642 87.1355 19
4 -2 -6 959.729 143.209 20
-4 2 6 1243.55 175.493 19
4 -2 -5 323.244 87.9689 20
4 -2 -4 5905.49 405.853 20
4 -2 -3 3821.86 341.541 20
4 -2 -2 1665.08 237.300 20
-4 2 2 1912.99 241.850 19
-4 2 0 1418.07 229.176 16
-4 2 -1 14155.7 763.144 16
-4 2 -1 15225.1 698.690 28
-4 2 -2 19.3112 56.4176 16
-4 2 -2 39.8167 65.2007 28
-4 2 -3 3442.16 395.409 16
-4 2 -3 3198.55 307.751 28
-4 2 -4 1338.77 243.782 16
-4 2 -4 986.940 172.602 28
-4 2 -5 342.031 142.888 16
-4 2 -6 158.351 93.0132 16
-4 2 -7 340.533 102.901 16
4 -2 8 727.983 105.110 30
4 -2 9 948.391 100.606 30
-4 1 8 -10.0702 15.4841 19
-4 1 7 2295.71 221.194 19
-4 1 6 66.3836 60.7719 19
-4 1 5 4036.85 356.913 19
-4 1 4 10466.3 605.424 19
-4 1 3 848.933 181.915 19
-4 1 2 10.7281 35.9525 19
-4 1 1 251.094 97.0371 19
-4 1 0 -33.8560 49.5935 16
-4 1 -1 3866.90 409.344 16
-4 1 -2 7.21816 43.6499 16
-4 1 -2 31.5042 24.0660 28
-4 1 -3 7996.65 625.327 16
-4 1 -3 6921.12 457.599 28
-4 1 -4 70.6885 75.7489 16
-4 1 -4 91.7764 52.6171 28
-4 1 -5 12532.6 809.222 16
-4 1 -6 6808.96 573.671 16
-4 1 -7 60.3538 64.3240 16
4 -1 8 74.4148 32.3925 30
-4 1 -8 184.194 74.6438 16
4 -1 9 849.045 105.870 30
-4 0 8 869.084 119.653 19
-4 0 8 1176.81 129.790 14
-4 0 7 45.4796 38.1330 14
-4 0 7 86.3829 45.8043 19
-4 0 6 468.753 109.497 14
-4 0 6 636.451 132.474 19
-4 0 5 1535.35 230.313 19
-4 0 5 1231.63 181.112 14
-4 0 4 306.251 100.378 14
-4 0 4 454.908 128.345 19
-4 0 3 284.333 94.1503 14
-4 0 3 359.032 127.720 19
-4 0 2 312.872 98.0730 14
-4 0 2 598.667 151.411 19
-4 0 1 181.300 75.4861 14
-4 0 1 333.961 124.334 19
-4 0 0 307.441 99.1358 14
-4 0 0 259.188 98.2860 19
-4 0 -1 2393.90 325.701 16
-4 0 -1 2905.19 316.375 28
-4 0 -1 2985.21 289.887 14
-4 0 -2 1484.97 260.366 16
-4 0 -2 1588.33 221.745 28
-4 0 -3 313.837 140.290 16
-4 0 -3 226.233 85.3591 28
-4 0 -4 178.286 70.8324 16
-4 0 -4 199.729 87.8911 28
-4 0 -5 129.543 107.810 16
-4 0 -6 2762.09 391.287 16
-4 0 -7 66.2272 58.5658 16
4 0 8 292.503 75.8488 30
-4 0 -8 334.332 114.423 16
4 0 9 307.700 67.1178 30
-4 -1 9 260.919 51.0369 14
-4 -1 8 117.478 42.8986 14
-4 -1 8 77.3138 37.9117 19
-4 -1 7 69.2062 55.4829 14
-4 -1 7 62.7980 39.7322 19
-4 -1 6 3001.46 276.721 14
-4 -1 6 3486.44 316.929 19
-4 -1 5 4040.39 330.504 14
-4 -1 5 4636.89 391.765 19
-4 -1 4 321.775 89.1269 14
-4 -1 4 340.430 113.872 19
-4 -1 3 5669.19 467.490 19
-4 -1 3 4688.45 365.335 14
-4 -1 2 823.877 148.207 14
-4 -1 2 815.059 182.094 19
-4 -1 1 4946.56 449.977 19
-4 -1 1 4469.23 367.038 14
-4 -1 0 6350.96 504.983 19
-4 -1 0 6616.25 452.967 14
-4 -1 -1 136.893 61.4856 14
-4 -1 -1 100.929 57.9204 19
-4 -1 -1 93.7664 60.5001 16
-4 -1 -1 160.187 82.7479 28
-4 -1 -2 -36.3609 40.2034 14
-4 -1 -2 -3.26669 69.0798 16
-4 -1 -2 -11.2810 39.8508 28
-4 -1 -3 2318.87 333.105 16
-4 -1 -3 2164.51 269.945 28
-4 -1 -4 15404.2 871.825 16
-4 -1 -5 10629.9 758.275 16
-4 -1 -6 5.97950 51.7455 16
-4 -1 -7 2651.78 365.973 16
4 1 8 63.3729 28.9365 22
4 1 8 -22.8193 26.7361 30
-4 -1 -8 69.4558 62.0785 16
4 1 9 277.909 73.9122 22
-4 -2 9 33.5204 18.5300 14
-4 -2 8 481.570 87.8431 14
-4 -2 7 12.8203 29.0652 14
-4 -2 7 -0.68622 32.1085 19
-4 -2 6 26.0129 31.8230 14
-4 -2 6 31.1300 21.4259 19
-4 -2 5 77.1799 69.6580 14
-4 -2 5 -76.3583 60.2297 19
-4 -2 4 77.6397 65.3863 14
-4 -2 4 2.69832 56.5123 19
-4 -2 3 862.677 181.280 19
-4 -2 3 913.493 177.356 14
-4 -2 2 45.6459 35.4962 14
-4 -2 2 40.4791 34.9979 19
-4 -2 1 160.313 74.8110 14
-4 -2 1 145.545 76.7441 19
-4 -2 0 88.5265 65.4826 14
-4 -2 0 8.10425 46.5060 19
-4 -2 -1 359.118 113.702 14
-4 -2 -1 276.472 130.980 16
-4 -2 -1 268.930 100.215 28
-4 -2 -2 725.434 154.746 14
-4 -2 -2 507.870 172.454 16
-4 -2 -2 586.837 133.766 28
-4 -2 -3 351.385 140.667 16
-4 -2 -3 342.520 89.4359 29
-4 -2 -3 453.432 125.260 28
-4 -2 -4 22.4667 43.5284 16
-4 -2 -4 36.4383 29.0244 29
-4 -2 -5 261.432 135.275 16
-4 -2 -5 181.961 62.0742 29
-4 -2 -6 392.417 156.085 16
-4 -2 -7 -18.6388 77.6976 16
4 2 8 119.248 51.1041 22
-4 -2 -8 183.534 79.0038 16
4 2 9 99.0498 49.4901 22
-4 -3 8 13.6296 21.0888 14
-4 -3 7 -8.91097 28.7683 14
-4 -3 6 1828.76 214.069 14
-4 -3 5 990.437 180.586 19
-4 -3 5 1292.44 193.407 14
-4 -3 4 138.907 70.6288 14
-4 -3 4 183.282 87.1332 19
-4 -3 3 -26.1523 39.4855 14
-4 -3 3 10.3908 57.4287 19
-4 -3 2 3691.15 362.012 19
-4 -3 2 5350.73 440.644 14
-4 -3 1 182.037 82.6508 14
-4 -3 0 440.314 128.931 14
-4 -3 -1 100.724 72.8655 14
-4 -3 -1 27.4747 82.5436 16
-4 -3 -2 262.969 96.9527 14
-4 -3 -2 77.3402 82.8155 16
-4 -3 -3 2263.35 357.831 16
-4 -3 -3 2267.63 235.429 29
-4 -3 -4 643.948 189.932 16
-4 -3 -4 858.223 141.184 29
-4 -3 -5 385.195 152.189 16
-4 -3 -5 399.149 97.2829 29
-4 -3 -6 30.0053 37.3377 16
-4 -3 -6 106.615 57.3910 29
-4 -3 -7 -30.6331 40.1551 16
-4 -3 -7 4.09607 18.8937 29
4 3 8 101.661 52.2294 22
-4 -3 -8 93.1577 72.5427 16
4 3 9 173.547 59.5284 22
-4 -4 8 24.3596 18.1649 14
-4 -4 7 8.29086 17.7569 14
-4 -4 6 461.956 99.9222 14
-4 -4 6 533.820 151.058 23
-4 -4 6 462.508 100.877 13
-4 -4 5 94.2108 61.3893 14
-4 -4 5 227.546 116.219 23
-4 -4 4 600.042 134.030 14
-4 -4 4 655.697 166.539 23
-4 -4 3 84.7971 76.9435 14
-4 -4 2 31.1156 42.6131 14
-4 -4 1 1666.53 248.376 14
-4 -4 0 1228.12 215.583 14
-4 -4 -1 357.117 136.994 16
-4 -4 -1 1157.99 202.252 14
-4 -4 -2 38.7484 69.1712 16
-4 -4 -2 132.766 62.9469 29
-4 -4 -3 355.643 148.855 16
-4 -4 -3 561.653 120.184 29
-4 -4 -4 13.0315 39.4737 16
-4 -4 -4 38.4288 32.8711 29
-4 -4 -5 358.569 138.644 16
-4 -4 -5 531.550 114.774 29
-4 -4 -6 1151.21 233.419 16
-4 -4 -6 1834.55 199.781 29
-4 -4 -7 947.435 135.896 29
4 4 8 118.500 52.0424 22
4 4 9 150.347 50.5636 22
-4 -5 7 250.188 55.9174 14
-4 -5 6 157.381 52.1350 14
-4 -5 6 229.436 62.6398 13
-4 -5 5 353.570 80.9626 14
-4 -5 5 426.323 146.524 23
-4 -5 5 375.024 96.9525 13
-4 -5 4 70.0575 47.4159 14
-4 -5 4 152.700 93.1828 23
-4 -5 4 7.39074 47.6338 13
-4 -5 3 -54.9031 53.6438 14
-4 -5 3 -45.9155 54.5694 13
-4 -5 2 723.294 135.699 13
-4 -5 2 883.545 169.921 14
-4 -5 1 35.1063 59.4009 14
-4 -5 1 -81.1470 77.5602 13
-4 -5 0 602.587 141.356 14
-4 -5 0 473.906 112.339 13
-4 -5 -1 -37.4038 62.7467 14
-4 -5 -1 11.9648 37.9688 13
-4 -5 -1 0.07028 17.6305 29
-4 -5 -2 414.234 102.219 29
-4 -5 -3 577.570 120.722 29
-4 -5 -4 383.011 95.8660 29
-4 -5 -5 307.794 89.1286 29
-4 -5 -6 964.094 138.001 29
4 5 7 40.5703 30.2180 22
4 5 8 38.5190 33.2255 22
-4 -6 6 -33.7412 35.1679 13
-4 -6 5 1399.11 149.046 13
-4 -6 4 844.518 128.256 13
-4 -6 3 1328.65 177.256 13
-4 -6 2 567.236 111.094 14
-4 -6 2 715.804 138.039 13
-4 -6 1 -31.3077 34.6235 14
-4 -6 1 58.8128 47.9034 13
-4 -6 1 3.91205 18.4669 29
-4 -6 0 98.3137 57.8009 13
-4 -6 0 72.8391 41.9384 29
-4 -6 -1 167.854 79.2029 13
-4 -6 -1 26.6085 37.8065 29
-4 -6 -2 2354.15 221.026 29
-4 -6 -3 2137.99 209.830 29
-4 -6 -4 176.422 57.5602 29
-4 -6 -5 1293.20 154.981 29
4 6 6 630.489 108.963 22
-4 -6 -6 691.045 108.097 29
4 6 7 267.963 65.2269 22
-4 -6 -7 455.251 81.1462 33
-4 -7 5 1359.98 118.655 13
-4 -7 4 335.132 62.0808 13
-4 -7 3 302.402 81.1439 13
-4 -7 2 125.036 59.9476 13
-4 -7 1 22.9234 47.6009 13
-4 -7 0 44.9916 25.2114 13
-4 -7 0 -12.1709 14.9224 29
-4 -7 -1 -60.1890 54.9730 13
-4 -7 -1 6.45681 14.4036 29
-4 -7 -2 156.208 51.7303 29
-4 -7 -3 56.8366 32.3051 29
-4 -7 -4 -68.0118 33.3326 29
-4 -7 -5 887.103 125.755 33
-4 -7 -6 418.960 82.1715 33
-4 -8 3 1272.16 113.165 13
-4 -8 2 -24.4712 24.2580 13
-4 -8 1 34.5498 22.1758 13
-4 -8 0 -28.3660 36.4124 13
-4 -8 -1 44.4319 28.2876 33
-4 -8 -2 116.540 46.3107 33
-4 -8 -3 -25.2164 17.7269 33
-4 -8 -4 68.7327 33.8974 33
-5 3 2 17.4902 11.7595 28
-5 3 1 27.7754 23.2502 28
-5 3 0 661.644 97.5420 28
-5 3 -1 60.5595 32.6262 28
-5 3 -2 87.3371 45.1679 16
-5 3 -3 197.317 60.6746 16
-5 2 4 77.6099 33.5762 28
-5 2 3 51.0526 18.6309 19
-5 2 3 148.983 46.1677 28
-5 2 2 840.102 117.506 28
-5 2 1 1104.64 137.560 28
-5 2 0 384.305 82.8853 28
-5 2 -1 639.120 126.851 16
-5 2 -1 675.781 114.438 28
-5 2 -2 1149.45 174.240 16
-5 2 -2 1293.57 158.743 28
-5 2 -3 4.75808 28.9292 16
-5 2 -4 75.6470 48.9074 16
-5 2 -5 277.990 73.0800 16
-5 1 5 145.573 41.3980 19
-5 1 4 335.955 73.3088 19
-5 1 4 437.278 81.9171 28
-5 1 3 361.157 81.1927 19
-5 1 3 481.495 91.6688 28
-5 1 2 604.148 102.701 19
-5 1 2 933.419 133.520 28
-5 1 1 914.910 130.429 28
-5 1 0 2419.52 218.127 28
-5 1 -1 4678.22 374.121 16
-5 1 -1 5494.99 341.407 28
-5 1 -2 264.836 92.0751 16
-5 1 -2 245.313 71.0882 28
-5 1 -3 20.5182 48.5073 16
-5 1 -4 52.8225 50.4150 16
-5 1 -5 53.6687 47.8592 16
-5 1 -6 49.4463 37.7078 16
-5 0 5 1854.23 165.384 19
-5 0 5 1632.68 133.220 28
-5 0 4 1390.24 163.403 19
-5 0 4 1460.41 148.630 28
-5 0 3 645.454 118.692 19
-5 0 3 799.716 120.712 28
-5 0 2 421.271 102.858 19
-5 0 2 366.718 86.4805 28
-5 0 1 413.344 99.8319 28
-5 0 0 6386.29 383.499 28
-5 0 -1 -3.21731 43.4352 16
-5 0 -1 48.9013 47.3098 28
-5 0 -2 558.347 148.001 16
-5 0 -2 743.149 136.074 28
-5 0 -3 296.060 115.223 16
-5 0 -4 213.031 74.8814 16
-5 0 -5 -39.6935 60.6200 16
-5 0 -6 101.728 61.3633 16
-5 -1 5 3206.59 206.373 14
-5 -1 4 362.157 75.3418 14
-5 -1 4 309.401 80.4347 19
-5 -1 3 4.66829 24.7351 14
-5 -1 3 -39.3383 40.8506 19
-5 -1 3 -5.46820 18.3054 28
-5 -1 2 101.478 56.5905 14
-5 -1 2 84.2583 42.5451 28
-5 -1 1 6.92605 33.9550 14
-5 -1 1 -2.43991 27.8767 28
-5 -1 0 2153.72 232.263 28
-5 -1 0 2248.03 215.126 14
-5 -1 -1 7.69123 41.0658 16
-5 -1 -1 39.5530 41.1421 28
-5 -1 -2 2539.05 317.132 16
-5 -1 -2 3402.25 300.316 28
-5 -1 -3 8.28127 56.3444 16
-5 -1 -4 4903.10 461.266 16
-5 -1 -5 3044.66 348.500 16
-5 -1 -6 66.9433 54.3974 16
-5 -1 -7 15.5126 18.0924 16
-5 -2 5 225.746 58.3457 14
-5 -2 4 370.303 81.3524 14
-5 -2 3 437.075 95.6034 14
-5 -2 2 213.921 63.3122 14
-5 -2 1 99.1738 53.8004 14
-5 -2 0 2016.98 212.406 14
-5 -2 -1 43.0063 21.5318 29
-5 -2 -1 47.2898 37.7130 28
-5 -2 -2 -22.6228 38.0327 16
-5 -2 -2 -16.6732 25.7951 29
-5 -2 -3 86.6116 71.0505 16
-5 -2 -3 -1.07430 25.6819 29
-5 -2 -4 5.48406 44.1784 16
-5 -2 -5 940.371 193.088 16
-5 -2 -6 18.9066 24.9180 16
-5 -2 -7 52.6141 40.2924 16
-5 -3 5 16.4531 25.5821 14
-5 -3 5 24.3472 18.1754 13
-5 -3 4 1545.99 165.190 14
-5 -3 3 76.4401 46.9105 14
-5 -3 2 803.307 141.415 14
-5 -3 1 2124.70 227.829 14
-5 -3 0 66.2745 29.3275 14
-5 -3 -1 -49.0606 31.5991 29
-5 -3 -2 296.899 95.5677 16
-5 -3 -2 318.925 73.7634 29
-5 -3 -3 3274.98 345.504 16
-5 -3 -3 3411.34 228.836 29
-5 -3 -4 3239.44 337.864 16
-5 -3 -4 3385.75 215.757 29
-5 -3 -5 -61.8019 57.4124 16
-5 -3 -5 -2.99090 18.1201 29
-5 -3 -6 472.684 114.291 16
-5 -4 5 17.6467 21.5262 14
-5 -4 4 410.774 79.8518 14
-5 -4 4 307.662 64.9030 13
-5 -4 3 -19.4642 20.7545 14
-5 -4 3 -87.0109 53.1353 13
-5 -4 2 30.6733 41.5147 14
-5 -4 1 39.5874 41.4478 14
-5 -4 0 87.1695 33.3964 13
-5 -4 0 86.6972 48.8920 29
-5 -4 -1 58.2567 30.0243 29
-5 -4 -2 129.956 46.5410 29
-5 -4 -3 47.3844 32.9765 29
-5 -4 -4 162.147 50.3066 29
-5 -4 -5 33.9446 21.1599 29
5 4 6 30.6965 34.3465 22
-5 -5 4 32.3558 22.1645 13
-5 -5 3 668.683 92.1847 13
-5 -5 3 674.123 96.5709 14
-5 -5 2 65.3585 33.8369 13
-5 -5 2 -3.00486 12.1524 29
-5 -5 1 286.287 65.6072 13
-5 -5 1 146.093 47.4029 29
-5 -5 0 82.5575 43.2949 13
-5 -5 0 19.0036 17.3144 29
-5 -5 -1 103.483 42.9584 29
-5 -5 -2 926.735 122.622 29
-5 -5 -3 450.757 84.2634 29
-5 -5 -4 405.892 75.4644 29
-5 -5 -5 28.5419 16.6943 29
-5 -6 2 157.119 41.9084 13
-5 -6 1 149.433 43.5567 13
-5 -6 1 38.8769 20.7813 29
-5 -6 0 10.5561 9.70437 29
-5 -6 -1 18.0182 18.6054 29
-5 -6 -2 244.636 53.8283 29
-5 -6 -3 -7.00134 12.0606 29
