#------------------------------------------------------------------------------
#$Date: 2017-09-12 06:37:44 +0300 (Tue, 12 Sep 2017) $
#$Revision: 200662 $
#$URL: file:///home/coder/svn-repositories/cod/cif/4/12/61/4126195.cif $
#------------------------------------------------------------------------------
#
# This file is available in the Crystallography Open Database (COD),
# http://www.crystallography.net/
#
# All data on this site have been placed in the public domain by the
# contributors.
#
data_4126195
loop_
_publ_author_name
'Liu, Xuncheng'
'He, Bo'
'Anderson, Christopher L.'
'Kang, Jun'
'Chen, Teresa'
'Chen, Jinxiang'
'Feng, Shizhen'
'Zhang, Lianjie'
'Kolaczkowski, Matthew A.'
'Teat, Simon J.'
'Brady, Michael A.'
'Zhu, Chenhui'
'Wang, Lin-Wang'
'Chen, Junwu'
'Liu, Yi'
_publ_section_title
;
 para-Azaquinodimethane: A Compact Quinodimethane Variant as an Ambient
 Stable Building Block for High-Performance Low Band Gap Polymers.
;
_journal_issue                   24
_journal_name_full               'Journal of the American Chemical Society'
_journal_page_first              8355
_journal_page_last               8363
_journal_paper_doi               10.1021/jacs.7b04031
_journal_volume                  139
_journal_year                    2017
_chemical_formula_sum            'C14 H10 N2 O2 S2'
_chemical_formula_weight         302.36
_space_group_crystal_system      triclinic
_space_group_IT_number           2
_space_group_name_Hall           '-P 1'
_space_group_name_H-M_alt        'P -1'
_symmetry_space_group_name_Hall  '-P 1'
_symmetry_space_group_name_H-M   'P -1'
_atom_sites_solution_hydrogens   difmap
_atom_sites_solution_primary     'Intrinsic phasing'
_atom_sites_solution_secondary   difmap
_audit_creation_method           SHELXL-2014/7
_cell_angle_alpha                95.385(9)
_cell_angle_beta                 96.169(9)
_cell_angle_gamma                94.844(8)
_cell_formula_units_Z            1
_cell_length_a                   3.8141(5)
_cell_length_b                   5.5850(8)
_cell_length_c                   14.3443(19)
_cell_measurement_reflns_used    3477
_cell_measurement_temperature    100(2)
_cell_measurement_theta_max      40.23
_cell_measurement_theta_min      4.01
_cell_volume                     301.07(7)
_computing_cell_refinement       'Bruker SAINT v8.34a'
_computing_data_collection       'Bruker APEX 2'
_computing_data_reduction        'Bruker SAINT v8.34a'
_computing_molecular_graphics    'Bruker SHELXTL'
_computing_publication_material  'Bruker SHELXTL & local programs'
_computing_structure_refinement  'SHELXL-2014/7 (Sheldrick, 2014)'
_computing_structure_solution    'Bruker SHELXTL 2014/4'
_diffrn_ambient_temperature      100(2)
_diffrn_detector_area_resol_mean 10.42
_diffrn_measured_fraction_theta_full 0.999
_diffrn_measured_fraction_theta_max 0.969
_diffrn_measurement_device_type  'Bruker D8 with PHOTON 100 detector'
_diffrn_measurement_method       '\w/\q shutterless scans'
_diffrn_radiation_type           synchrotron
_diffrn_radiation_wavelength     0.7749
_diffrn_reflns_av_R_equivalents  0.0452
_diffrn_reflns_av_unetI/netI     0.0768
_diffrn_reflns_Laue_measured_fraction_full 0.999
_diffrn_reflns_Laue_measured_fraction_max 0.969
_diffrn_reflns_limit_h_max       6
_diffrn_reflns_limit_h_min       -6
_diffrn_reflns_limit_k_max       9
_diffrn_reflns_limit_k_min       -9
_diffrn_reflns_limit_l_max       23
_diffrn_reflns_limit_l_min       -23
_diffrn_reflns_number            5449
_diffrn_reflns_point_group_measured_fraction_full 0.999
_diffrn_reflns_point_group_measured_fraction_max 0.969
_diffrn_reflns_theta_full        30.000
_diffrn_reflns_theta_max         40.361
_diffrn_reflns_theta_min         3.132
_diffrn_source                   'Advanced Light Source station 11.3.1'
_exptl_absorpt_coefficient_mu    0.556
_exptl_absorpt_correction_T_max  0.997
_exptl_absorpt_correction_T_min  0.665
_exptl_absorpt_correction_type   multi-scan
_exptl_absorpt_process_details   'SADABS 2014/5 Bruker AXS Madison WI USA'
_exptl_crystal_colour            yellow
_exptl_crystal_density_diffrn    1.668
_exptl_crystal_description       plate
_exptl_crystal_F_000             156
_exptl_crystal_size_max          0.300
_exptl_crystal_size_mid          0.200
_exptl_crystal_size_min          0.005
_refine_diff_density_max         0.737
_refine_diff_density_min         -0.729
_refine_diff_density_rms         0.117
_refine_ls_extinction_method     none
_refine_ls_goodness_of_fit_ref   1.018
_refine_ls_hydrogen_treatment    refall
_refine_ls_matrix_type           full
_refine_ls_number_parameters     111
_refine_ls_number_reflns         2864
_refine_ls_number_restraints     0
_refine_ls_restrained_S_all      1.018
_refine_ls_R_factor_all          0.0758
_refine_ls_R_factor_gt           0.0525
_refine_ls_shift/su_max          0.000
_refine_ls_shift/su_mean         0.000
_refine_ls_structure_factor_coef Fsqd
_refine_ls_weighting_details
'w=1/[\s^2^(Fo^2^)+(0.0519P)^2^+0.2066P] where P=(Fo^2^+2Fc^2^)/3'
_refine_ls_weighting_scheme      calc
_refine_ls_wR_factor_gt          0.1151
_refine_ls_wR_factor_ref         0.1251
_reflns_Friedel_coverage         0.000
_reflns_number_gt                2245
_reflns_number_total             2864
_reflns_threshold_expression     'I > 2\s(I)'
_cod_data_source_file            ja7b04031_si_002.cif
_cod_data_source_block           DT_DKP_NH_a
_cod_depositor_comments
'Adding full bibliography for 4126195--4126196.cif.'
_cod_database_code               4126195
_shelx_shelxl_version_number     2014/7
_shelx_space_group_comment
;
The symmetry employed for this shelxl refinement is uniquely defined
by the following loop, which should always be used as a source of
symmetry information in preference to the above space-group names.
They are only intended as comments.
;
_shelx_estimated_absorpt_t_min   0.851
_shelx_estimated_absorpt_t_max   0.997
_shelx_res_file
;

    DT_DKP_NH_a.res created by SHELXL-2014/7


TITL DT_DKP_NH_a.res in P-1
CELL  0.77490   3.8141   5.5850  14.3443   95.385   96.169   94.844
ZERR    1.000   0.0005   0.0008   0.0019    0.009    0.009    0.008
LATT  1
SFAC C H N O S
DISP    C     0.00399    0.00197        13.60
DISP    H     0.00000    0.00000         0.67
DISP    N     0.00762    0.00403        23.92
DISP    O     0.01323    0.00737        40.17
DISP    S     0.14305    0.14800       674.22
UNIT 14 10 2 2 2

ACTA 60

REM (Iobs-Icalc)/SigmaW > 10 Outliers
OMIT     0   6  13

TEMP -173
SIZE 0.300 0.200 0.005

REM Yellow plate
REM Structure solved by SHELXT 2014/4
REM Cell refinement by SAINT v8.34a
REM 3477 input reflections Min.2Th 8.028 Max.2Th 80.455

L.S. 10
BOND $H
FMAP 2
PLAN 20

EQIV $1 -x+2, -y+2, -z+1
EQIV $2 x-1, y, z
EQIV $3 x+1, y, z
EQIV $4 -x, 1-y, -z

REM Instructions for potential hydrogen bonds
HTAB N1 O1_$1
HTAB C5 O1_$1

RTAB S..S S1 S1_$2
RTAB S..S S1 S1_$3
RTAB S..S S1 S1_$4

WGHT    0.051900    0.206600
FVAR       1.04051
O1    4    0.948850    0.865409    0.587014    11.00000    0.01956    0.01189 =
         0.01318    0.00068   -0.00053   -0.00889
C1    1    0.738690    0.696902    0.547262    11.00000    0.00979    0.00839 =
         0.01089    0.00020    0.00204   -0.00185
N1    3    0.625018    0.688247    0.453550    11.00000    0.01120    0.00719 =
         0.00937    0.00003    0.00196   -0.00235
H1N   2    0.715625    0.802581    0.425566    11.00000    0.01967
C2    1    0.393001    0.504536    0.401554    11.00000    0.00868    0.00674 =
         0.01124   -0.00011    0.00256   -0.00117
C3    1    0.273821    0.493241    0.308402    11.00000    0.01062    0.00802 =
         0.01005    0.00045    0.00263   -0.00159
H3    2    0.129495    0.349713    0.286048    11.00000    0.03285
C4    1    0.334142    0.658227    0.239080    11.00000    0.00933    0.00799 =
         0.00900   -0.00051    0.00181   -0.00088
C5    1    0.504834    0.888751    0.244232    11.00000    0.01186    0.00816 =
         0.01112   -0.00032    0.00211   -0.00060
H5    2    0.617886    0.976965    0.298363    11.00000    0.01718
C6    1    0.483514    0.984952    0.156073    11.00000    0.01270    0.00849 =
         0.01403    0.00197    0.00250   -0.00060
H6    2    0.592769    1.135367    0.147254    11.00000    0.02206
C7    1    0.295217    0.831105    0.084677    11.00000    0.01287    0.01050 =
         0.01158    0.00182    0.00238    0.00017
H7    2    0.245225    0.852952    0.018442    11.00000    0.01654
S1    5    0.147026    0.566634    0.124003    11.00000    0.01315    0.00880 =
         0.01035    0.00009    0.00044   -0.00257
HKLF 4

REM  DT_DKP_NH_a.res in P-1
REM R1 =  0.0525 for    2245 Fo > 4sig(Fo)  and  0.0758 for all    2864 data
REM    111 parameters refined using      0 restraints

END

WGHT      0.0516      0.1694

REM Highest difference peak  0.737,  deepest hole -0.729,  1-sigma level  0.117
Q1    1   0.0708  0.6088  0.1670  11.00000  0.05    0.74
Q2    1   0.2127  0.5240  0.0814  11.00000  0.05    0.72
Q3    1  -0.0380  0.5783  0.1062  11.00000  0.05    0.67
Q4    1   0.3089  0.4184  0.4304  11.00000  0.05    0.65
Q5    1   0.3014  0.5249  0.1465  11.00000  0.05    0.61
Q6    1   0.0524  0.6840  0.1167  11.00000  0.05    0.55
Q7    1   0.5083  0.7395  0.2439  11.00000  0.05    0.48
Q8    1   0.4348  0.4862  0.3592  11.00000  0.05    0.48
Q9    1   0.2391  0.5428  0.3634  11.00000  0.05    0.45
Q10   1   0.2507  0.4569  0.1343  11.00000  0.05    0.45
Q11   1   0.2692  0.5939  0.2746  11.00000  0.05    0.43
Q12   1   0.9003  0.9223  0.6267  11.00000  0.05    0.43
Q13   1   0.1862  0.6521  0.2088  11.00000  0.05    0.43
Q14   1   0.5331  0.8212  0.0918  11.00000  0.05    0.42
Q15   1   0.7688  0.6141  0.4729  11.00000  0.05    0.42
Q16   1   0.8034  0.8059  0.5907  11.00000  0.05    0.40
Q17   1   0.2463  0.6682  0.0995  11.00000  0.05    0.40
Q18   1   0.3778  0.7773  0.2536  11.00000  0.05    0.40
Q19   1  -0.1520  0.6936  0.1472  11.00000  0.05    0.39
Q20   1   1.0888  0.8316  0.6082  11.00000  0.05    0.38
;
_shelx_res_checksum              20475
_shelx_hkl_file
;
  -1   0   0  265.17   13.60
   1   0   0  240.78   13.20
  -2   0   0   25.70    3.50
   2   0   0   28.40    3.50
   2   0   0   25.60    1.80
  -3   0   0   14.00    3.20
   3   0   0   11.20    1.40
  -4   0   0   18.70    4.60
   4   0   0   13.80    1.70
  -5   0   0   39.20    7.70
   5   0   0   35.20    2.80
  -6   0   0   27.10    7.50
   6   0   0   21.90    2.40
  -6   1   0   14.30    6.00
   5  -1   0    3.70    1.10
  -5   1   0    5.50    4.20
   4  -1   0  260.47   13.00
   4  -1   0  226.28   16.10
  -4   1   0  244.78   15.30
   3  -1   0   21.30    1.60
   3  -1   0   28.10    5.40
  -3   1   0   20.30    3.40
   2  -1   0  393.36   20.00
   2  -1   0  374.46   22.50
  -2   1   0  396.16   21.00
   1  -1   0  171.18   10.40
   1  -1   0  199.08    9.70
  -1   1   0  195.48   10.40
   0  -1   0  606.04   32.20
   0  -1   0  648.04   32.60
   0  -1   0  630.14   32.50
  -1  -1   0   55.79    3.30
  -1  -1   0   55.19    4.20
   1   1   0   59.09    3.50
  -2  -1   0  684.43   36.40
  -3  -1   0   -2.90    2.70
   3   1   0   -0.70    0.70
  -4  -1   0  173.18   12.40
   4   1   0  174.18    9.50
  -5  -1   0  114.69   10.80
   5   1   0  109.09    6.40
  -6  -1   0   18.80    7.00
   6   1   0   21.70    2.40
  -6   2   0   -0.50    6.00
  -5   2   0   56.19    7.70
   4  -2   0   32.30    6.00
  -4   2   0   29.80    4.70
   3  -2   0   33.90    6.20
   3  -2   0   28.90    1.80
  -3   2   0   22.70    4.10
   2  -2   0  635.74   31.00
   2  -2   0  578.44   32.20
  -2   2   0  598.74   32.20
   1  -2   0   26.30    3.80
   1  -2   0   24.50    1.70
   0  -2   0  361.36   19.10
   0  -2   0  354.36   18.90
   0  -2   0  343.67   18.30
  -1  -2   0   36.10    3.00
  -1  -2   0   37.60    2.50
  -1  -2   0   40.40    4.00
  -2  -2   0  220.18   11.50
  -2  -2   0  205.38   12.80
   3   2   0  483.15   25.30
  -4  -2   0    7.10    4.00
   4   2   0    2.60    1.10
  -5  -2   0   31.90    6.80
   5   2   0   21.70    2.40
  -6  -2   0    6.20    7.00
   6   2   0    6.70    1.50
  -6   3   0   30.20    7.30
   5  -3   0   42.00   15.90
  -5   3   0   68.49    8.00
   4  -3   0   30.50    7.40
  -4   3   0   35.20    5.90
   3  -3   0    0.80    3.50
  -3   3   0    2.60    2.60
   2  -3   0   63.19    6.30
   2  -3   0   57.89    3.70
  -2   3   0   65.99    5.00
   1  -3   0  847.32   43.00
   1  -3   0  834.32   44.00
  -1   3   0  828.32   43.90
   0  -3   0  119.29    6.60
   0  -3   0  124.69    8.20
   0  -3   0  120.49    8.00
  -1  -3   0   22.60    3.40
  -1  -3   0   25.50    2.10
  -1  -3   0   23.30    4.10
  -2  -3   0   86.89    5.00
  -2  -3   0   83.29    7.10
   2   3   0   76.09    6.40
  -3  -3   0   11.00    4.00
  -4  -3   0   26.10    5.40
   4   3   0   34.60    2.90
  -5  -3   0   63.59   10.10
   5   3   0   56.29    4.00
   5  -4   0   22.00   10.60
  -5   4   0   15.10    5.40
   4  -4   0   17.40    6.70
  -4   4   0   17.50    4.30
   3  -4   0    2.60    3.80
  -3   4   0    1.80    3.30
   2  -4   0   21.20    3.50
  -2   4   0   19.70    3.90
   1  -4   0  116.19    6.40
   1  -4   0  116.39    8.30
  -1   4   0  117.89    7.70
   0  -4   0   19.70    4.00
   0  -4   0   20.00    2.20
   0  -4   0   20.60    3.60
  -1  -4   0  807.22   42.00
  -1  -4   0  776.02   41.20
  -1  -4   0  802.52   42.90
  -2  -4   0  165.58   11.80
  -2  -4   0  167.08    9.40
  -3  -4   0    6.60    4.30
  -4  -4   0   21.00    6.40
   4   4   0   22.70    2.70
  -5  -4   0   51.29    9.00
   5   4   0   76.69    4.70
   5  -5   0   -4.20    8.80
  -5   5   0   -1.40    5.30
   4  -5   0   22.00    7.20
  -4   5   0   16.50    4.70
   3  -5   0  242.98   15.90
  -3   5   0  250.57   15.30
   2  -5   0  131.29   10.10
  -2   5   0  142.59    9.60
   1  -5   0    4.00    3.20
  -1   5   0    7.60    2.90
   0  -5   0   61.99    6.90
   0  -5   0   62.49    4.00
   0  -5   0   50.99    7.30
  -1  -5   0  219.18   13.10
  -1  -5   0  198.28   13.90
  -1  -5   0  197.28   11.30
  -2  -5   0  220.48   12.00
  -2  -5   0  211.78   15.00
  -3  -5   0   -2.00    5.10
   3   5   0   -0.40    1.50
  -4  -5   0   81.89   11.60
   4   5   0   69.89    4.90
   5  -6   0   59.39   14.10
  -5   6   0   15.80    6.20
   4  -6   0    6.90    6.80
  -4   6   0    3.00    4.90
   3  -6   0  186.28   13.90
  -3   6   0  189.98   12.90
   2  -6   0   28.10    5.00
  -2   6   0   29.00    4.80
   1  -6   0  145.69   10.90
  -1   6   0  142.59   10.40
   0  -6   0   46.40    8.30
   0  -6   0   61.69   10.30
  -1  -6   0  108.29    6.70
  -1  -6   0   97.29   10.50
  -1  -6   0  115.09    9.80
  -2  -6   0   89.69   10.50
  -3  -6   0  163.58   15.00
   3   6   0  171.08    9.80
  -4  -6   0  118.59   15.10
   4   6   0  106.49    6.80
   4  -7   0    7.90    7.70
  -4   7   0    4.20    5.20
   3  -7   0   85.69   12.30
  -3   7   0   91.79    9.40
   2  -7   0   -2.90    4.30
  -2   7   0    5.00    4.60
   1  -7   0   36.70    6.20
  -1   7   0   33.50    6.00
   0  -7   0  132.39   12.40
  -1  -7   0   83.29   10.20
  -1  -7   0   96.29   12.20
  -2  -7   0   19.00    7.80
   2   7   0   22.40    3.10
  -3  -7   0   57.69   12.40
   3   7   0   59.89    4.70
   3  -8   0    5.70    7.10
  -3   8   0   15.50    6.80
  -2   8   0   26.40    6.90
   1  -8   0   38.20    7.10
  -1   8   0   31.50    6.80
   0  -8   0   23.10    6.60
   0   8   0   21.10    6.80
  -1  -8   0   40.80   11.60
  -2  -8   0  117.29   15.40
   2   8   0  106.19    7.40
   2  -9   0   90.99   13.90
  -2   9   0   76.69   13.30
   1  -9   0   18.60   10.30
  -1   9   0   -7.00    8.00
   0   9   0   14.00    9.20
   0  -9   1   46.10    7.90
   1  -9   1   68.79   12.20
  -2   9  -1   26.00   12.00
   2  -9   1    7.60    6.90
   2   8  -1   34.80    4.80
   0   8  -1   31.60    7.50
   0  -8   1   28.20    6.60
  -1   8  -1   61.39   10.00
   1  -8   1   62.79   10.80
  -2   8  -1   57.89   10.50
   2  -8   1   60.79   12.60
  -3   8  -1   15.80    7.70
   3  -8   1   24.50    7.10
   3   7  -1   57.59    4.80
  -3  -7   1   57.19   11.80
  -2  -7   1   47.30    9.40
  -1  -7   1   49.99    8.70
  -1  -7   1   49.60    9.30
  -1  -7   1   48.00    4.60
   0  -7   1   15.40    5.20
  -1   7  -1   57.19    8.40
   1  -7   1   54.99    8.70
  -2   7  -1   45.10    7.90
   2  -7   1   38.90    8.20
  -3   7  -1   61.59    9.50
   3  -7   1   82.39   10.60
  -4   7  -1    4.40    5.80
   4  -7   1    4.00    8.20
   4   6  -1   50.89    4.10
  -4  -6   1   21.90    9.90
   3   6  -1   67.09    5.20
  -3  -6   1   93.29   11.60
  -2  -6   1  138.09   12.70
  -2  -6   1  152.48    8.80
  -1  -6   1   89.79    5.80
  -1  -6   1   89.39    8.60
  -1  -6   1   83.29   10.10
   0  -6   1   52.29    4.60
   0  -6   1   71.49    8.50
   1  -6   1   11.90    3.80
  -2   6  -1  235.48   14.90
   2  -6   1  234.28   15.30
  -3   6  -1   -4.20    4.40
   3  -6   1    4.40    4.60
  -4   6  -1    1.20    5.10
   4  -6   1    5.20    6.30
  -5   6  -1   50.69    9.40
   5  -6   1   52.19   10.70
   5   5  -1   82.79    5.50
  -5  -5   1   98.49   15.10
   4   5  -1   77.79    5.20
  -4  -5   1   75.89   11.80
  -3  -5   1  166.88   13.90
  -2  -5   1   57.79    4.20
  -1  -5   1   79.89    5.10
  -1  -5   1   82.39    8.20
  -1  -5   1   78.19    6.90
   0  -5   1  201.48   12.50
   0  -5   1  194.18   13.10
   0  -5   1  177.38   10.40
  -1   5  -1  139.29    9.20
   1  -5   1  131.99    9.80
  -2   5  -1  330.47   18.70
   2  -5   1  312.47   18.90
  -3   5  -1   26.10    4.70
   3  -5   1   26.40    5.10
  -4   5  -1   78.79    8.30
   4  -5   1   80.29   13.10
  -5   5  -1   20.50    6.30
   5  -5   1   21.60   10.60
   5   4  -1   41.50    3.50
  -5  -4   1   44.70    9.00
   4   4  -1   11.30    2.10
  -4  -4   1   20.60    6.40
  -3  -4   1  134.69   11.20
   2   4  -1  238.18   16.50
  -2  -4   1  219.98   14.90
  -2  -4   1  246.58   12.90
  -1  -4   1  132.19    8.60
  -1  -4   1  130.99    9.40
  -1  -4   1  134.99    7.60
   0  -4   1   19.80    3.70
   0  -4   1   10.60    1.70
   0  -4   1   13.90    3.20
  -1   4  -1  392.26   21.70
   1  -4   1  398.36   22.00
   1  -4   1  398.36   20.70
  -2   4  -1  310.97   17.70
   2  -4   1  308.77   17.90
  -3   4  -1   38.00    5.80
   3  -4   1   52.19    9.60
  -4   4  -1   -0.40    3.60
   4  -4   1   10.90    7.00
  -5   4  -1   59.99    8.40
   5  -4   1   54.69   11.90
   5   3  -1    2.90    1.40
  -5  -3   1    6.00    5.90
   4   3  -1    5.40    1.60
  -4  -3   1    5.30    4.50
  -3  -3   1  257.97   16.20
   2   3  -1  481.65   26.50
  -2  -3   1  502.15   27.50
  -2  -3   1  512.15   26.20
  -1  -3   1    7.50    2.00
   0  -3   1  471.75   25.80
   0  -3   1  480.95   25.60
  -1   3  -1   17.50    2.80
   1  -3   1   18.90    3.00
   1  -3   1   17.90    1.70
  -2   3  -1   -1.10    1.90
   2  -3   1   -0.40    2.40
   2  -3   1   -1.00    1.00
  -3   3  -1   40.60    5.10
   3  -3   1   39.20    6.20
  -4   3  -1   48.70    6.80
   4  -3   1   48.10   10.50
  -5   3  -1   51.59    8.10
  -6   3  -1    6.10    5.90
   6   2  -1   17.80    2.20
  -6  -2   1   11.40    7.40
   5   2  -1   22.50    2.50
  -5  -2   1   26.20    6.50
   4   2  -1  102.09    6.10
  -4  -2   1  103.99    9.40
  -3  -2   1   23.50    4.20
  -2  -2   1    8.80    1.40
  -2  -2   1   11.30    2.80
  -1  -2   1  624.54   31.80
  -1  -2   1  574.14   31.00
   0  -2   1  873.21   45.70
   0  -2   1  879.91   45.80
   0  -2   1  883.71   45.20
  -1   2  -1  265.87   14.20
   1  -2   1  245.98   13.60
   1  -2   1  271.87   14.50
  -2   2  -1   27.00    3.60
   2  -2   1   28.40    1.70
   2  -2   1   28.90    4.30
  -3   2  -1   86.99    7.00
   3  -2   1   86.29    4.70
   3  -2   1   91.49    7.90
  -4   2  -1  174.98   11.40
   4  -2   1  137.19   14.90
  -5   2  -1   10.40    4.90
  -6   2  -1   26.10    7.00
  -6  -1   1   24.00    6.60
   5   1  -1   72.99    4.60
  -5  -1   1   73.49    9.40
   4   1  -1  196.48   10.70
  -4  -1   1  195.18   13.30
  -3  -1   1  164.88   10.90
   2   1  -1   14.90    2.40
  -2  -1   1    9.90    1.50
  -2  -1   1   14.20    2.60
   1   1  -1  126.79    7.30
  -1  -1   1  134.19    7.10
  -1  -1   1  137.49    7.70
   0  -1   1  364.56   19.70
   0  -1   1  385.16   19.50
   0  -1   1  384.16   19.80
  -1   1  -1  596.04   31.20
   1  -1   1  607.44   30.60
   1  -1   1  586.54   31.10
  -2   1  -1   39.60    3.70
   2  -1   1   36.50    5.20
   2  -1   1   32.40    2.00
  -3   1  -1  106.39    7.90
   3  -1   1  105.19    5.70
  -4   1  -1   19.50    4.10
   4  -1   1   15.40    1.50
  -5   1  -1    1.20    4.50
   5  -1   1    5.10    1.20
  -6   1  -1   89.09   11.10
  -6   0   1   10.40    6.50
   5   0  -1   80.39    4.90
  -5   0   1   74.39    9.50
   4   0  -1    4.30    1.10
  -4   0   1    4.00    3.60
   3   0  -1  230.08   13.30
   3   0  -1  220.18   11.90
  -3   0   1  223.08   13.50
   2   0  -1    8.50    2.00
   1   0  -1 2035.20  107.49
  -1   0   1 2162.08  107.79
  -1   0  -1 1194.38   60.79
   1   0   1 1186.48   60.49
   1   0   1 1153.38   60.39
  -2   0  -1  124.59    7.80
   2   0   1  124.29    7.30
   2   0   1  121.49    6.60
  -3   0  -1  349.37   19.80
   3   0   1  341.67   18.00
   3   0   1  345.37   19.00
  -4   0  -1   21.10    4.60
  -5   0  -1    1.40    4.50
   5   0   1    1.50    1.00
  -6   0  -1  111.79   12.30
   6   0   1  124.29    6.90
  -6   1   1   16.20    6.30
   5  -1  -1   13.30    2.00
  -5   1   1   20.40    4.90
   4  -1  -1   14.20    5.40
   4  -1  -1    4.90    1.00
  -4   1   1    8.80    3.70
   3  -1  -1   24.00    3.80
   3  -1  -1   25.00    1.80
  -3   1   1   27.50    4.30
   2  -1  -1   46.80    4.90
   2  -1  -1   49.40    2.80
  -2   1   1   51.79    4.20
   1  -1  -1 9753.72  517.15
  -1   1   1 9999.00  517.25
   0  -1  -1  716.03   35.90
   0  -1  -1  634.04   35.60
   0  -1  -1  718.43   35.40
  -1  -1  -1  139.99    8.30
  -2  -1  -1    5.10    2.20
   2   1   1    6.40    1.00
  -3  -1  -1   68.79    6.60
   3   1   1   64.69    4.00
  -4  -1  -1    5.10    4.10
   4   1   1    5.70    1.10
  -5  -1  -1   68.99    8.90
   5   1   1   70.69    4.40
  -6  -1  -1   -1.60    6.30
  -6   2   1    4.70    6.00
  -5   2   1  113.19    9.90
   4  -2  -1   10.60    5.80
  -4   2   1    4.90    3.40
   3  -2  -1   19.20    1.30
   3  -2  -1   20.90    4.10
  -3   2   1   17.60    3.30
   2  -2  -1   98.09    7.40
   2  -2  -1  115.79    5.60
  -2   2   1  104.79    7.00
   1  -2  -1   96.49    6.40
  -1   2   1   91.19    5.80
   0  -2  -1   15.50    2.40
   0  -2  -1   11.90    1.10
   0  -2  -1   16.00    3.10
  -1  -2  -1  952.70   49.99
  -1  -2  -1  943.31   49.00
  -1  -2  -1  957.10   49.10
  -2  -2  -1   12.90    3.20
  -3  -2  -1  134.79   10.00
   3   2   1  142.19    7.80
  -4  -2  -1  317.17   19.40
   4   2   1  311.27   16.70
  -5  -2  -1   11.50    5.80
   5   2   1   24.60    2.30
  -6   3   1   26.00    6.70
   5  -3  -1    1.70   12.00
  -5   3   1    9.70    4.70
   4  -3  -1    4.80    5.60
  -4   3   1    2.20    3.10
   3  -3  -1  278.77   16.70
  -3   3   1  273.47   16.20
   2  -3  -1   19.80    3.50
  -2   3   1   19.70    3.40
   1  -3  -1  152.78    9.80
  -1   3   1  161.68    9.40
   0  -3  -1  148.69    9.00
   0  -3  -1  135.79   11.60
   0  -3  -1  139.09    7.60
  -1  -3  -1  301.77   16.30
  -1  -3  -1  285.77   15.60
  -1  -3  -1  299.97   17.20
  -2  -3  -1  694.43   37.80
  -3  -3  -1   27.10    4.80
   3   3   1   21.00    2.30
  -4  -3  -1    5.80    4.70
   4   3   1   14.20    1.80
  -5  -3  -1   26.50    7.40
   5   3   1   25.00    2.90
   5  -4  -1    2.50   11.30
  -5   4   1    2.40    4.50
   4  -4  -1   -3.80    5.60
  -4   4   1    2.90    3.40
   3  -4  -1   31.20    7.10
  -3   4   1   42.40    5.40
   2  -4  -1  470.45   25.80
  -2   4   1  459.95   25.50
   1  -4  -1    1.20    0.70
   1  -4  -1    0.50    2.30
  -1   4   1    1.40    2.20
   0  -4  -1   61.39    3.80
   0  -4  -1   58.89    6.80
   0  -4  -1   65.99    6.50
  -1  -4  -1  101.99    6.20
  -1  -4  -1   99.39    8.50
  -1  -4  -1  129.59   10.40
  -2  -4  -1   10.80    3.90
  -3  -4  -1   39.70    7.50
   3   4   1   34.20    3.00
  -4  -4  -1  149.59   12.80
   4   4   1  145.59    8.40
  -5  -4  -1  -12.30    6.70
   5   4   1    2.40    1.40
   5  -5  -1   12.60   10.30
  -5   5   1    8.90    5.40
   4  -5  -1    7.40    6.60
  -4   5   1   11.70    4.30
   3  -5  -1   30.40    5.30
  -3   5   1   49.30    6.00
   2  -5  -1   17.60    3.90
   1  -5  -1   13.10    3.60
  -1   5   1    9.20    3.30
   0  -5  -1  655.73   35.10
   0  -5  -1  616.64   33.60
   0  -5  -1  669.93   36.10
  -1  -5  -1   74.99    8.00
  -1  -5  -1   73.99    4.90
  -1  -5  -1   82.89    7.90
  -2  -5  -1    0.80    4.20
  -3  -5  -1   92.89   10.80
   3   5   1   95.19    6.00
  -4  -5  -1   64.09   10.90
   4   5   1   58.09    4.30
   5  -6  -1    8.50    8.90
  -5   6   1   -3.80    5.20
   4  -6  -1  173.08   15.70
  -4   6   1  153.78   12.40
   3  -6  -1   37.00    6.40
  -3   6   1   32.80    5.50
   2  -6  -1   31.60    5.40
  -2   6   1   30.90    6.10
   1  -6  -1   33.90    7.10
  -1   6   1   35.90    5.80
   0  -6  -1  163.98   13.30
  -1  -6  -1  179.08   13.80
  -2  -6  -1   53.79    9.20
   2   6   1   50.79    4.20
  -3  -6  -1   65.99   11.10
   3   6   1   75.19    5.20
  -4  -6  -1   24.90    9.30
   4   6   1   15.50    2.50
   4  -7  -1  110.69   14.50
  -4   7   1   95.39   10.80
   3  -7  -1   -3.20    5.70
  -3   7   1    6.10    5.20
   2  -7  -1   67.89    9.50
  -2   7   1   68.69    8.90
   1  -7  -1    8.70    5.10
  -1   7   1   12.40    4.70
   0  -7  -1  101.29   11.40
  -1  -7  -1   15.70    7.40
   1   7   1   26.50    3.30
  -2  -7  -1  218.68   18.60
   2   7   1  245.58   13.30
  -3  -7  -1   70.29   13.60
   3   7   1   70.79    5.10
   3  -8  -1    5.40    7.10
  -3   8   1   -0.10    5.80
  -2   8   1   32.50    6.60
   1  -8  -1   72.89   11.80
  -1   8   1   62.79   10.10
   0   8   1   25.50    6.90
  -1  -8  -1   15.40    9.90
  -2  -8  -1   21.80   11.20
   2   8   1   33.20    4.50
  -2   9   1   25.00    8.50
   1  -9  -1    9.80    7.40
  -1   9   1   13.90    7.60
   0   9   1   -3.60    7.80
   0  -9   2   -3.90    5.10
   1  -9   2    3.20    5.20
   2  -9   2   31.40    7.10
   2   8  -2   27.90    3.60
   0   8  -2  106.59   12.40
   0  -8   2  122.49   10.60
  -1   8  -2  147.69   14.10
   1  -8   2  170.38   13.60
  -2   8  -2   52.09    8.20
  -3   8  -2   32.00    8.30
   3  -8   2   35.80    8.00
   3   7  -2   81.29    5.90
  -3  -7   2   90.99   16.40
  -2  -7   2   28.20    8.90
  -1  -7   2   72.59   12.50
  -1  -7   2   57.19    8.60
  -1  -7   2   71.29    5.40
   0   7  -2    4.80    5.10
   0  -7   2    6.40    4.40
   0  -7   2    7.70    3.00
  -1   7  -2   42.10    7.70
   1  -7   2   44.30    8.10
  -2   7  -2   67.49    8.80
   2  -7   2   61.29    8.30
  -3   7  -2   22.40    6.10
   3  -7   2   11.60    5.90
  -4   7  -2   10.90    6.60
   4  -7   2    4.00    7.30
  -4  -6   2   -1.20    9.60
  -3  -6   2   47.10    8.90
  -2  -6   2   77.79   10.10
  -2  -6   2   79.49    5.50
  -1  -6   2    6.00    1.90
  -1  -6   2    8.20    6.30
  -1  -6   2    5.00    3.60
   0  -6   2  101.59    9.10
   0  -6   2   97.49    6.50
  -1   6  -2  171.18   12.10
   1  -6   2  186.58   12.40
   2  -6   2   47.00    6.90
  -3   6  -2    3.40    4.50
   3  -6   2   -2.50    4.40
  -4   6  -2   38.00    6.50
   4  -6   2   46.70    7.90
  -5   6  -2    2.70    5.70
   5  -6   2   28.50   10.90
   5   5  -2   18.50    2.90
  -5  -5   2   37.70   10.50
   4   5  -2  130.59    7.90
  -4  -5   2  135.99   14.10
  -3  -5   2  166.08   13.70
  -3  -5   2  164.18    9.60
  -2  -5   2   21.90    2.70
  -2  -5   2   26.30    5.70
  -1  -5   2  141.99    9.60
  -1  -5   2  139.09   10.70
  -1  -5   2  147.29    8.30
   0  -5   2   82.39    7.70
   0  -5   2   97.49    8.50
   0  -5   2   87.59    5.40
  -1   5  -2  338.77   18.50
   1  -5   2  340.37   18.80
   1  -5   2  288.27   17.60
  -2   5  -2    1.80    2.90
   2  -5   2    2.50    3.20
  -3   5  -2   39.70    6.40
   3  -5   2   41.80    7.20
  -4   5  -2   46.20    8.10
   4  -5   2   63.49   10.20
  -5   5  -2    1.50    5.30
   5  -5   2    6.00   10.20
   5   4  -2    9.60    1.80
  -5  -4   2   18.20    8.40
   4   4  -2  160.78    9.60
  -4  -4   2  186.68   14.50
  -3  -4   2   17.50    5.20
  -3  -4   2   20.30    2.50
   2   4  -2   88.39    9.00
  -2  -4   2   74.99    7.70
  -2  -4   2   82.59    5.20
  -1  -4   2  135.09    9.60
  -1  -4   2  144.19    8.90
  -1  -4   2  138.29    7.90
   0  -4   2  354.96   18.80
   0  -4   2  366.96   19.90
   0  -4   2  343.67   20.10
  -1   4  -2  419.56   22.60
   1  -4   2  403.56   22.80
   1  -4   2  415.76   21.70
  -2   4  -2  211.58   12.90
   2  -4   2  235.48   12.00
   2  -4   2  195.98   13.20
  -3   4  -2  138.29   10.90
   3  -4   2  146.09   13.10
  -4   4  -2   65.99    7.80
   4  -4   2   63.19   12.50
  -5   4  -2   11.60    5.50
   5  -4   2   23.00   13.20
   5   3  -2   24.90    2.70
  -5  -3   2   16.30    6.90
   4   3  -2   96.99    6.10
  -4  -3   2  114.79   10.30
  -3  -3   2  211.18   11.60
  -3  -3   2  207.18   13.70
   2   3  -2  188.08   12.30
  -2  -3   2  204.98   12.50
  -2  -3   2  207.78   11.00
  -1  -3   2  134.29    8.70
  -1  -3   2  127.89    7.40
  -1  -3   2  136.59    8.00
   0  -3   2  689.83   37.10
   0  -3   2  722.13   37.10
   0  -3   2  683.23   36.10
  -1   3  -2  376.36   20.60
   1  -3   2  380.26   19.90
   1  -3   2  387.06   21.00
  -2   3  -2   66.39    5.50
   2  -3   2   61.79    6.00
  -3   3  -2    4.30    2.80
   3  -3   2    7.60    3.70
  -4   3  -2  118.19    9.40
   4  -3   2  103.39   15.20
  -5   3  -2    1.00    4.80
  -6   3  -2   82.59   11.00
   6   2  -2    3.80    1.80
  -6  -2   2    8.00    7.20
   5   2  -2   12.60    2.00
  -5  -2   2    9.60    5.40
   4   2  -2  193.78   10.90
  -4  -2   2  207.48   13.90
  -3  -2   2  200.88   13.20
  -3  -2   2  209.38   11.30
   2   2  -2    6.80    1.50
  -2  -2   2    6.80    2.50
  -2  -2   2    6.90    1.20
  -1  -2   2  662.03   34.10
  -1  -2   2  631.04   33.50
   0  -2   2  353.56   18.30
   0  -2   2  350.06   18.80
   0  -2   2  346.77   18.70
  -1   2  -2   11.90    1.80
   1  -2   2   13.10    2.40
  -2   2  -2  142.49    8.70
   2  -2   2  141.59    8.90
   2  -2   2  135.39    7.40
  -3   2  -2  161.78   10.80
   3  -2   2  152.98   11.10
   3  -2   2  175.28    8.70
  -4   2  -2   65.89    7.30
   4  -2   2   42.50    9.30
   4  -2   2   57.19    3.40
  -5   2  -2   49.90    8.00
  -6   2  -2   62.19   10.50
  -6  -1   2    7.30    6.30
   5   1  -2  138.49    7.80
  -5  -1   2  130.49   11.90
   4   1  -2   -0.10    1.00
  -4  -1   2    0.60    3.70
  -3  -1   2    0.40    2.70
   2   1  -2  574.04   30.90
  -2  -1   2  617.14   30.90
   1   1  -2  429.36   22.20
  -1  -1   2  417.06   22.10
  -1  -1   2  429.46   22.40
   0  -1   2  935.51   48.20
   0  -1   2  940.41   48.40
  -1   1  -2  380.66   20.90
   1  -1   2  416.56   20.30
   1  -1   2  390.46   20.90
  -2   1  -2  136.59    8.60
   2  -1   2  146.59    8.50
   2  -1   2  134.49    7.30
  -3   1  -2  327.97   19.60
   3  -1   2  377.56   20.80
   3  -1   2  334.37   17.90
  -4   1  -2    5.30    3.70
   4  -1   2    4.40    0.90
  -5   1  -2   47.30    7.90
   5  -1   2   40.60    2.80
  -6   1  -2    7.40    6.50
  -6   0   2  104.89   11.60
   5   0  -2   37.00    3.00
  -5   0   2   32.40    5.90
   4   0  -2  116.99    6.70
  -4   0   2  119.09    9.50
   3   0  -2   48.20    7.20
   3   0  -2   67.39    3.90
  -3   0   2   79.29    6.10
   2   0  -2   33.10    3.60
  -2   0   2   39.10    3.80
  -2   0   2   40.50    2.50
   1   0  -2  818.52   42.60
  -1   0   2  810.72   42.50
  -1   0   2  853.91   42.90
   0   0  -2    2.10    0.70
   0   0  -2    1.10    0.80
   0   0   2    1.60    0.30
  -1   0  -2    3.20    1.50
   1   0   2    3.40    0.50
  -2   0  -2  268.87   15.00
   2   0   2  262.07   14.20
  -3   0  -2   15.50    3.40
   3   0   2   13.10    1.40
  -4   0  -2   11.20    3.90
   4   0   2    7.60    1.10
  -5   0  -2  247.78   17.60
   5   0   2  281.47   14.20
  -6   0  -2    1.20    6.00
  -6   1   2   17.30    6.50
  -5   1   2   12.80    5.00
   4  -1  -2   28.80    6.70
   4  -1  -2   45.60    2.90
  -4   1   2   45.90    6.10
   3  -1  -2    5.20    3.30
  -3   1   2    3.80    2.20
   2  -1  -2 2028.20  106.19
   2  -1  -2 2058.09  106.79
  -2   1   2 2133.59  107.09
   1  -1  -2 1511.75   78.49
  -1   1   2 1536.15   78.59
   0  -1  -2  694.83   38.60
   0  -1  -2  799.42   39.00
   0   1   2  751.32   38.30
  -1  -1  -2  451.35   23.40
   1   1   2  419.16   22.50
  -2  -1  -2  388.96   20.90
   2   1   2  363.86   19.60
  -3  -1  -2   68.19    7.00
   3   1   2   77.29    4.40
  -4  -1  -2   35.40    5.90
   4   1   2   31.90    2.40
  -5  -1  -2  144.09   11.80
   5   1   2  136.99    7.70
  -6  -1  -2    8.20    6.70
   6   1   2    9.50    1.50
  -6   2   2   10.60    6.10
  -5   2   2    2.10    4.10
   4  -2  -2   20.10    6.10
  -4   2   2   31.00    5.30
   3  -2  -2  254.77   15.20
  -3   2   2  251.37   14.80
   2  -2  -2 1741.93   88.59
  -2   2   2 1678.83   88.59
   1  -2  -2  117.39    7.70
  -1   2   2  120.69    7.20
   0  -2  -2  393.56   20.40
   0  -2  -2  366.16   21.10
  -1  -2  -2  140.69    9.00
  -1  -2  -2  140.59    8.00
  -2  -2  -2  243.88   14.40
   2   2   2  239.68   12.80
  -3  -2  -2   44.00    6.20
   3   2   2   44.60    3.10
  -4  -2  -2   68.39    8.40
   4   2   2   72.19    4.50
  -5  -2  -2   14.80    5.90
   5   2   2    9.30    1.50
  -6   3   2   27.60    6.90
   5  -3  -2    3.00   10.90
  -5   3   2    4.10    4.20
   4  -3  -2   19.60    5.60
  -4   3   2   14.80    3.60
   3  -3  -2   22.40    4.50
  -3   3   2   20.70    3.60
   2  -3  -2   75.19    6.70
  -2   3   2   73.89    5.70
   1  -3  -2   26.70    4.60
  -1   3   2   26.50    3.40
   0  -3  -2  512.15   28.60
   0  -3  -2  536.15   27.70
   0  -3  -2  560.34   29.30
  -1  -3  -2  110.49    8.20
  -1  -3  -2  111.09    7.30
  -2  -3  -2   10.80    3.50
   2   3   2    8.10    1.30
  -3  -3  -2  393.86   23.40
   3   3   2  411.66   21.30
  -4  -3  -2   46.50    7.50
   4   3   2   43.80    3.30
  -5  -3  -2   10.40    8.60
   5   3   2   11.10    2.10
   5  -4  -2   22.50   10.20
  -5   4   2    5.40    5.00
   4  -4  -2   82.49   11.70
  -4   4   2   94.19    8.10
   3  -4  -2   34.20    7.20
  -3   4   2   36.60    5.00
   2  -4  -2   24.10    4.10
  -2   4   2   22.70    4.00
   1  -4  -2  127.49    9.20
  -1   4   2  126.49    8.50
   0  -4  -2  298.47   16.40
   0  -4  -2  325.57   18.80
   0  -4  -2  316.37   17.90
  -1  -4  -2  346.57   20.40
  -2  -4  -2   59.79    7.40
   2   4   2   57.19    3.90
  -3  -4  -2   11.80    4.70
   3   4   2   15.50    2.30
  -4  -4  -2   18.80    5.60
   4   4   2   15.20    2.30
  -5  -4  -2   -1.10    6.80
   5   4   2    2.60    1.40
  -5   5   2   -0.70    4.80
   4  -5  -2   31.20    7.50
  -4   5   2   29.60    5.40
   3  -5  -2  151.08   11.60
  -3   5   2  161.78   10.90
   2  -5  -2   16.10    3.70
  -2   5   2   14.30    3.70
   1  -5  -2  113.99    9.10
  -1   5   2  109.49    8.40
   0  -5  -2   33.50    6.40
   0  -5  -2   31.30    6.00
  -1  -5  -2   36.90    5.50
  -1  -5  -2   40.40    6.20
  -2  -5  -2   61.09    8.10
   2   5   2   58.09    4.20
  -3  -5  -2  206.78   15.10
   3   5   2  186.78   10.80
  -4  -5  -2   -5.20    6.20
   4   5   2   -1.30    1.90
   5  -6  -2   24.40   11.60
  -5   6   2   25.60    6.50
   4  -6  -2   13.70    8.00
  -4   6   2   17.90    5.40
   3  -6  -2    0.20    4.70
  -3   6   2    0.80    4.00
   2  -6  -2   11.30    4.20
  -2   6   2    7.90    3.80
   1  -6  -2  354.36   20.80
  -1   6   2  342.27   20.60
   0  -6  -2   51.29    9.00
  -1  -6  -2   -4.10    4.80
   1   6   2   -1.30    1.70
  -2  -6  -2  144.29   13.10
   2   6   2  159.28    9.00
  -3  -6  -2   49.90    8.60
   3   6   2   34.70    3.50
  -4  -6  -2    5.40    7.70
   4   6   2    1.10    1.60
   4  -7  -2    8.40    8.80
  -4   7   2   -6.20    5.40
   3  -7  -2   47.70    7.80
  -3   7   2   38.00    6.70
   2  -7  -2   43.10    6.90
  -2   7   2   44.70    7.70
   1  -7  -2  152.88   13.10
  -1   7   2  146.99   11.50
   0  -7  -2  106.19   12.30
  -1  -7  -2  121.19   14.00
   1   7   2  137.99    8.30
  -2  -7  -2   52.39    9.70
   2   7   2   61.49    4.80
  -3  -7  -2    1.30    8.10
   3   7   2    0.90    1.90
   3  -8  -2   24.30    7.90
  -3   8   2   12.70    6.30
  -2   8   2   -1.00    5.60
   1  -8  -2   28.60    7.10
  -1   8   2   30.40    6.40
   0  -8  -2   10.40    7.70
   0   8   2    6.40    5.90
  -1  -8  -2  242.58   20.40
  -2  -8  -2   31.40   11.60
   2   8   2   32.30    4.90
   1  -9  -2   29.10    8.60
  -1   9   2    3.60    7.10
   0   9   2   21.90    7.90
   0  -9   3    2.60    4.50
   1  -9   3   12.60    4.70
   2  -9   3   74.29   11.00
  -1  -8   3    0.30    3.40
   0  -8   3   26.60    5.10
  -1   8  -3   87.79   12.40
   1  -8   3   86.19    9.50
  -2   8  -3   11.70    7.60
  -3   8  -3    4.20    8.10
   3  -8   3   15.20    7.40
  -2  -7   3   26.10    3.90
  -2  -7   3   26.40    9.90
  -1  -7   3  120.49    7.80
  -1  -7   3  124.59   14.40
   0   7  -3  354.36   22.50
   0  -7   3  389.36   21.90
  -1   7  -3   43.10    8.10
   1  -7   3   44.70    7.30
  -2   7  -3   23.10    6.20
   2  -7   3   35.40    7.40
  -3   7  -3   61.79    9.70
   3  -7   3   56.59   10.20
  -4   7  -3    4.30    7.00
   4  -7   3    5.30    7.30
   4   6  -3  116.69    7.20
  -3  -6   3   21.30    7.90
  -2  -6   3   62.79   10.10
  -2  -6   3   64.79    4.80
  -1  -6   3   13.30    2.40
  -1  -6   3   10.60    5.90
   0  -6   3   31.00    3.40
   0  -6   3   36.20    6.20
  -1   6  -3  107.79    8.60
   1  -6   3  100.09    8.80
  -2   6  -3   83.09    8.00
   2  -6   3   81.39    8.30
  -3   6  -3    9.30    4.90
   3  -6   3    8.90    4.80
  -4   6  -3  102.39   11.20
   4  -6   3  127.99   16.60
  -5   6  -3   -6.10    6.60
   5  -6   3    5.20   12.10
   5   5  -3    4.60    1.80
  -5  -5   3   -6.00   10.10
   4   5  -3   45.80    3.90
  -4  -5   3   50.59    9.30
  -3  -5   3   54.69    9.70
  -3  -5   3   55.59    4.30
  -2  -5   3   48.00    3.90
  -2  -5   3   61.49    7.70
  -1  -5   3  144.19   10.30
  -1  -5   3  133.59    9.10
  -1  -5   3  133.29    7.90
   0  -5   3  410.06   21.70
   0  -5   3  407.46   22.90
  -1   5  -3   28.10    4.60
   1  -5   3   22.10    3.90
   1  -5   3   23.50    2.90
  -2   5  -3    5.90    3.20
   2  -5   3    3.90    3.30
  -3   5  -3  143.59   11.00
   3  -5   3  151.18   11.40
  -4   5  -3   -4.00    5.40
   4  -5   3    3.20    6.00
  -5   5  -3   24.90    6.90
   5  -5   3   24.20   14.20
   5   4  -3  136.09    8.50
  -5  -4   3  193.88   17.00
  -4  -4   3   95.69   11.70
  -3  -4   3    2.60    4.60
  -3  -4   3    0.10    1.30
   2   4  -3  202.88   13.70
  -2  -4   3  208.68   11.50
  -2  -4   3  210.58   13.60
  -1  -4   3  277.47   15.30
  -1  -4   3  265.57   14.60
  -1  -4   3  272.07   16.00
   0  -4   3  401.06   21.00
   0  -4   3  395.86   21.90
  -1   4  -3   53.09    4.70
   1  -4   3   49.60    3.70
   1  -4   3   48.30    5.40
  -2   4  -3  178.88   11.20
   2  -4   3  179.88   11.50
   3  -4   3   36.60    7.40
  -4   4  -3    3.20    4.40
   4  -4   3    4.60    6.10
  -5   4  -3    9.70    5.80
   5  -4   3    4.20   15.20
   5   3  -3   94.19    5.80
  -5  -3   3   83.69   11.70
  -4  -3   3   10.10    4.90
  -3  -3   3   69.09    7.50
  -3  -3   3   72.49    4.70
   2   3  -3   51.39    5.60
  -2  -3   3   56.19    5.60
  -2  -3   3   53.69    3.70
  -1  -3   3  636.14   34.10
  -1  -3   3  676.73   35.00
   0  -3   3  326.57   18.10
   0  -3   3  324.57   17.40
   0  -3   3  340.57   18.20
  -1   3  -3  927.91   48.20
   1  -3   3  863.11   48.40
   1  -3   3  981.70   47.80
  -2   3  -3  181.98   11.00
   2  -3   3  180.08   11.20
   2  -3   3  173.58    9.70
  -3   3  -3  220.88   13.50
   3  -3   3  206.58   11.70
   3  -3   3  222.38   13.90
  -4   3  -3    0.40    3.70
   4  -3   3    4.70    9.40
  -5   3  -3   62.39    9.50
  -6   3  -3    7.80    6.60
   6   2  -3   10.00    2.20
  -6  -2   3    4.50    7.60
  -5  -2   3   83.59   10.20
  -4  -2   3   84.99    9.10
   3   2  -3  201.38   11.80
  -3  -2   3  199.58   12.90
  -3  -2   3  196.78   11.00
  -2  -2   3  336.17   17.90
  -2  -2   3  341.47   18.90
   1   2  -3  370.56   20.40
  -1  -2   3  377.96   19.90
  -1  -2   3  365.06   19.50
   0  -2   3  414.16   22.60
   0  -2   3  434.16   22.00
   0  -2   3  419.96   22.20
  -1   2  -3   62.79    4.20
   1  -2   3   57.29    3.50
   1  -2   3   58.49    4.90
  -2   2  -3   18.60    2.80
   2  -2   3   18.90    4.00
   2  -2   3   16.30    1.30
  -3   2  -3  135.69    9.40
   3  -2   3  134.39    9.70
   3  -2   3  134.59    7.10
  -4   2  -3   42.40    6.80
   4  -2   3   45.20    2.80
  -5   2  -3  214.08   14.80
   5  -2   3  201.78   11.40
  -6   2  -3   12.50    7.10
  -6  -1   3   16.60    6.90
   5   1  -3   79.09    5.00
  -5  -1   3   69.59    9.50
   4   1  -3   53.19    3.60
  -4  -1   3   51.19    7.10
   3   1  -3   79.59    6.40
  -3  -1   3   72.49    4.70
  -3  -1   3   77.09    6.80
   2   1  -3  222.18   13.10
  -2  -1   3  254.87   13.90
  -2  -1   3  258.67   13.00
   1   1  -3  411.66   21.10
  -1  -1   3  385.06   20.90
  -1  -1   3  408.46   21.20
   0  -1   3   47.70    3.00
   0  -1   3   53.89    3.40
  -1   1  -3  442.86   24.30
   1  -1   3  434.76   24.30
   1  -1   3  506.85   23.80
  -2   1  -3  370.76   22.50
   2  -1   3  454.05   21.60
   2  -1   3  423.16   22.70
  -3   1  -3   12.90    3.30
   3  -1   3   11.60    3.30
   3  -1   3   16.40    1.20
  -4   1  -3  183.88   12.60
  -5   1  -3   71.49    9.00
   5  -1   3   68.29    4.10
  -6   1  -3   -7.80    6.40
  -6   0   3   64.69   10.80
   5   0  -3    3.30    1.60
  -5   0   3    5.50    4.90
   4   0  -3    4.60    1.20
   4   0  -3   12.50    6.10
  -4   0   3    3.30    3.70
   3   0  -3  288.27   16.20
  -3   0   3  280.97   16.50
   2   0  -3  248.38   13.90
  -2   0   3  248.58   13.10
  -2   0   3  246.88   13.90
   1   0  -3  574.24   30.10
  -1   0   3  594.74   30.00
  -1   0   3  577.44   30.30
   0   0  -3 1073.39   57.89
   0   0  -3 1192.48   58.09
   0   0   3 1117.29   57.79
  -1   0  -3  259.27   14.40
   1   0   3  267.97   13.60
  -2   0  -3  404.06   21.80
   2   0   3  407.36   20.60
   2   0   3  385.06   20.80
  -3   0  -3   36.80    5.20
   3   0   3   35.20    2.30
  -4   0  -3   73.89    7.90
   4   0   3   76.19    4.40
  -5   0  -3    0.10    5.00
   5   0   3    0.40    0.80
  -6   0  -3    5.10    6.20
  -6   1   3    2.60    5.90
  -5   1   3   56.59    8.10
   4  -1  -3   77.99    9.70
   4  -1  -3   80.29    4.70
  -4   1   3   72.29    7.20
   3  -1  -3   68.59    7.00
  -3   1   3   73.99    5.90
   2  -1  -3  225.28   13.50
  -2   1   3  232.78   13.00
   1  -1  -3  113.09    7.20
  -1   1   3  127.09    7.20
  -1   1   3  127.89    6.40
   0  -1  -3    0.40    1.10
   0  -1  -3    1.40    1.60
  -1  -1  -3  359.06   19.40
   1   1   3  351.96   18.40
  -2  -1  -3  132.69    8.80
   2   1   3  133.59    7.20
  -3  -1  -3   41.10    5.80
   3   1   3   36.10    2.50
  -4  -1  -3  535.65   30.50
   4   1   3  546.45   28.20
  -5  -1  -3    5.10    5.30
  -6  -1  -3   -3.40    6.30
  -6   2   3    2.30    6.10
  -5   2   3   10.20    4.50
   4  -2  -3   11.70    5.80
  -4   2   3    9.00    3.30
   3  -2  -3 1046.90   55.29
  -3   2   3 1049.20   55.29
   2  -2  -3 1230.18   62.79
  -2   2   3 1178.08   62.79
   1  -2  -3  174.38   10.40
  -1   2   3  179.58   10.20
   0  -2  -3  376.76   20.40
   0  -2  -3  347.97   19.70
   0   2   3  383.16   19.10
  -1  -2  -3  427.56   22.90
  -1  -2  -3  409.56   21.80
   1   2   3  404.86   21.50
  -2  -2  -3  108.49    7.90
   2   2   3  104.29    5.90
  -3  -2  -3  181.68   12.60
   3   2   3  193.38   10.30
  -4  -2  -3   82.69    9.10
   4   2   3   86.39    5.10
  -5  -2  -3    4.80    5.60
   5   2   3    8.90    1.40
  -6   3   3    6.20    5.70
   5  -3  -3   10.50   10.00
  -5   3   3   14.90    4.60
   4  -3  -3  193.38   15.00
  -4   3   3  207.98   12.90
   3  -3  -3  275.27   16.60
  -3   3   3  276.97   16.20
   2  -3  -3   19.60    3.50
  -2   3   3   22.10    3.50
   1  -3  -3  293.97   16.60
   0  -3  -3  121.29    8.10
   0  -3  -3  124.79    8.70
   0   3   3  117.39    6.50
  -1  -3  -3  373.56   20.70
  -1  -3  -3  380.86   19.70
   1   3   3  329.47   18.80
  -2  -3  -3  367.46   20.80
   2   3   3  348.07   18.80
  -3  -3  -3   30.50    5.90
   3   3   3   28.90    2.50
  -4  -3  -3   22.60    5.60
   4   3   3   19.60    2.20
  -5  -3  -3   -1.40    5.90
   5   3   3    3.10    1.30
   5  -4  -3   29.80   10.50
  -5   4   3   42.10    7.60
   4  -4  -3    5.40    5.60
  -4   4   3   -0.30    3.30
   3  -4  -3   66.49    8.30
  -3   4   3   63.59    6.20
   2  -4  -3   84.39    7.60
  -2   4   3   82.09    6.70
   1  -4  -3  196.38   12.40
   0  -4  -3  221.48   13.90
   0  -4  -3  205.58   13.00
   0   4   3  209.98   11.20
  -1  -4  -3   93.39    8.30
   1   4   3   96.69    5.60
   2   4   3  279.77   15.00
  -3  -4  -3  112.89   10.20
   3   4   3  102.99    6.30
  -4  -4  -3    1.40    5.50
   4   4   3    0.10    1.30
  -5  -4  -3   21.20    7.80
   5   4   3   21.30    2.40
  -5   5   3   36.20    6.70
   4  -5  -3   40.50    7.30
  -4   5   3   40.80    6.20
   3  -5  -3    6.70    4.60
  -3   5   3    1.90    3.20
   2  -5  -3   71.59    8.00
  -2   5   3   76.89    7.00
   1  -5  -3  221.38   14.20
  -1   5   3  233.78   14.20
   0  -5  -3   46.50    7.20
   0  -5  -3   54.89    8.30
   0   5   3   49.20    3.50
  -1  -5  -3   37.20    6.30
  -1  -5  -3   40.60    6.30
   1   5   3   26.50    2.80
  -2  -5  -3   42.10    7.70
   2   5   3   47.00    3.50
  -3  -5  -3   -1.40    4.90
   3   5   3    0.90    1.40
  -4  -5  -3  -12.70   11.30
   4   5   3   -1.40    1.50
   5  -6  -3   29.90    9.60
  -5   6   3   14.30    6.00
   4  -6  -3   45.90    8.80
  -4   6   3   35.40    6.00
   3  -6  -3   15.70    5.40
  -3   6   3   11.70    4.30
   2  -6  -3  101.79    9.90
  -2   6   3  122.89    9.40
   1  -6  -3   -1.40    4.20
  -1   6   3   -1.60    3.40
   0  -6  -3   35.10    6.80
   0  -6  -3   24.20    6.40
  -1  -6  -3  125.09   11.80
   1   6   3  120.89    7.30
  -2  -6  -3  125.99   12.00
   2   6   3  125.19    7.50
  -3  -6  -3    6.70    6.40
  -4  -6  -3    4.40    7.90
   4   6   3    6.50    1.70
   4  -7  -3   20.50    9.10
  -4   7   3    7.60    5.70
   3  -7  -3   -1.50    6.40
  -3   7   3   12.50    5.00
   2  -7  -3  151.88   13.40
  -2   7   3  175.08   12.70
   1  -7  -3   32.70    6.40
  -1   7   3   25.60    5.40
   0  -7  -3   22.40    6.70
  -1  -7  -3  110.09   13.30
   1   7   3  132.09    7.90
  -2  -7  -3   20.10    8.20
   2   7   3   20.50    2.80
  -3  -7  -3   20.60    9.00
   3   7   3   21.30    3.00
   3  -8  -3   38.90    9.10
  -3   8   3   31.40    7.10
   2  -8  -3  127.69   17.20
   1  -8  -3   18.20    6.80
  -1   8   3   23.40    6.50
   0  -8  -3  176.98   18.30
  -2  -8  -3   -5.60    9.70
   1  -9  -3   -3.90    8.30
  -1   9   3    1.10    7.00
   0   9   3  139.69   14.10
   0  -9   4   -0.30    4.30
   1  -9   4   97.79    9.60
   2  -9   4   12.30    5.40
  -2  -8   4   13.00    3.30
  -1  -8   4   10.10    3.40
   0  -8   4    0.60    3.70
   1  -8   4   70.69    8.40
   3  -8   4   16.50    7.10
  -2  -7   4    1.70    2.20
  -1  -7   4  169.58   10.10
   0   7  -4   82.59    9.60
   0  -7   4   75.69    6.20
   0  -7   4   86.99    7.90
  -1   7  -4   14.80    5.70
   1  -7   4   10.90    4.20
  -2   7  -4   55.49    9.50
   2  -7   4   65.19    8.10
  -3   7  -4   13.30    6.80
   3  -7   4   20.60    6.00
  -4   7  -4    8.30    9.90
   4  -7   4   -3.10    7.10
   4   6  -4   20.40    2.70
  -3  -6   4   40.80    4.10
  -3  -6   4   54.29    9.60
  -2  -6   4   14.90    6.60
  -2  -6   4   24.60    2.80
  -1  -6   4  447.76   26.70
  -1  -6   4  446.36   23.90
   0   6  -4   65.79    7.40
   0  -6   4   71.49    5.10
   0  -6   4   79.39    7.20
  -1   6  -4    3.90    3.70
   1  -6   4    2.60    2.80
  -2   6  -4   45.30    7.40
   2  -6   4   50.59    7.10
  -3   6  -4    1.80    5.10
   3  -6   4    3.50    4.70
  -4   6  -4   15.30    6.30
   4  -6   4   16.80    7.30
  -5   6  -4   10.20    7.50
   5  -6   4  -17.50    9.30
   5   5  -4   91.89    6.00
  -5  -5   4   96.89   16.10
  -4  -5   4   26.20    8.60
  -3  -5   4   -0.20    6.00
  -3  -5   4   11.80    2.20
   2   5  -4   19.40    6.60
  -2  -5   4   23.10    2.80
  -2  -5   4   22.60    5.30
  -1  -5   4   40.60    4.90
  -1  -5   4   36.80    6.50
  -1  -5   4   43.50    3.50
   0  -5   4   54.39    4.00
   0  -5   4   51.49    5.70
  -1   5  -4  179.08   11.20
   1  -5   4  169.38   11.60
   1  -5   4  178.28   10.00
  -2   5  -4   63.29    6.40
   2  -5   4   59.19    7.00
  -3   5  -4  177.38   12.40
   3  -5   4  171.78   12.80
  -4   5  -4   -1.70    4.90
   4  -5   4    6.80    7.70
  -5   5  -4   11.00    6.50
   5  -5   4   -8.10   15.30
   5   4  -4   33.20    3.20
  -4  -4   4   20.10    7.00
  -3  -4   4   42.50    7.90
  -3  -4   4   39.20    3.40
   2   4  -4  221.98   13.90
  -2  -4   4  210.48   12.20
  -2  -4   4  232.08   14.20
  -1  -4   4  507.65   27.80
  -1  -4   4  504.85   26.60
   0  -4   4    1.70    1.20
   0  -4   4    1.00    2.10
  -1   4  -4   24.70    3.70
   1  -4   4   20.10    3.40
   1  -4   4   19.70    2.40
  -2   4  -4  259.57   15.00
   2  -4   4  247.28   13.70
   2  -4   4  246.58   15.00
   3  -4   4   12.50    4.60
  -4   4  -4   34.10    6.00
   4  -4   4   24.30    7.70
  -5   4  -4   59.49    9.80
   5   3  -4    7.20    1.60
  -5  -3   4    5.80    6.60
  -4  -3   4   -1.70    4.80
  -3  -3   4  151.58    8.90
  -3  -3   4  161.38   11.30
   2   3  -4  437.26   23.70
  -2  -3   4  438.96   23.20
  -2  -3   4  439.46   24.30
  -1  -3   4  317.67   17.30
  -1  -3   4  300.27   16.40
   0  -3   4  347.57   18.20
   0  -3   4  313.67   18.00
  -1   3  -4  374.36   19.30
   1  -3   4  354.76   18.80
   1  -3   4  342.27   19.60
  -2   3  -4    2.00    2.30
   2  -3   4    3.20    2.70
   2  -3   4    3.00    1.30
  -3   3  -4    6.60    3.60
   3  -3   4    5.20    1.50
   3  -3   4    5.20    3.70
  -4   3  -4   69.69    8.70
   4  -3   4   80.79   14.50
  -5   3  -4    5.80    5.30
   6   2  -4   35.20    3.40
  -6  -2   4    8.30    7.80
   5   2  -4    2.00    1.50
  -5  -2   4    2.90    5.40
  -4  -2   4   73.89    8.80
   3   2  -4    4.50    4.10
  -3  -2   4    4.80    3.40
  -3  -2   4    4.10    1.30
   2   2  -4  504.15   27.60
  -2  -2   4  552.04   27.60
   1   2  -4   85.89    6.90
  -1  -2   4   83.69    5.10
  -1  -2   4   89.49    5.60
   0   2  -4 2097.19  105.29
   0  -2   4 2007.60  105.69
  -1   2  -4  161.28    9.20
   1  -2   4  157.98    9.50
   1  -2   4  161.98    8.70
  -2   2  -4  636.34   33.30
   2  -2   4  613.44   33.10
   2  -2   4  621.44   32.20
  -3   2  -4   14.50    3.70
   3  -2   4   10.80    1.10
   3  -2   4   11.90    3.70
  -4   2  -4  141.79   11.70
   4  -2   4  163.68    8.50
  -5   2  -4   -0.30    5.10
   5  -2   4   -0.10    1.50
  -6   2  -4   14.10    7.10
   6   1  -4   61.89    4.70
   5   1  -4   25.60    2.70
  -5  -1   4   13.50    5.50
  -4  -1   4  145.39   11.00
   3   1  -4  285.87   16.40
  -3  -1   4  289.87   17.10
  -3  -1   4  303.97   15.70
   2   1  -4   34.80    3.30
  -2  -1   4   36.50    2.70
  -2  -1   4   41.20    3.80
   1   1  -4  307.57   17.70
  -1  -1   4  324.47   16.70
  -1  -1   4  311.57   16.50
   0  -1   4   48.10    3.00
  -1   1  -4   60.69    4.40
   1  -1   4   78.09    3.70
   1  -1   4   60.19    4.50
  -2   1  -4   69.89    5.60
   2  -1   4   74.49    3.90
  -3   1  -4  210.48   13.10
   3  -1   4  207.88   10.90
  -4   1  -4  304.87   18.50
   4  -1   4  300.67   15.80
  -5   1  -4   26.30    5.90
   5  -1   4   19.60    1.90
  -6   1  -4    4.20    6.50
  -6   0   4   -9.00    6.30
   5   0  -4   26.70    2.90
  -5   0   4   24.30    5.90
   4   0  -4  107.99    6.20
   4   0  -4   98.39   10.50
  -4   0   4  112.19    8.90
   3   0  -4   51.99    6.20
  -3   0   4   48.20    5.20
  -3   0   4   57.19    3.70
   2   0  -4   65.19    5.10
  -2   0   4   72.29    4.10
  -2   0   4   69.79    4.90
   1   0  -4  232.58   12.50
  -1   0   4  231.08   12.60
  -1   0   4  242.98   12.30
   0   0  -4  659.53   36.10
   0   0  -4  730.63   36.40
   0   0   4  711.43   36.00
  -1   0  -4  788.92   41.70
  -1   0  -4  805.42   41.30
   1   0   4  802.52   41.20
  -2   0  -4   30.00    4.20
   2   0   4   30.60    1.90
  -3   0  -4  293.37   17.10
   3   0   4  282.77   15.00
  -4   0  -4   73.79    8.00
   4   0   4   66.39    3.90
  -5   0  -4    3.50    5.40
   5   0   4    2.00    0.80
  -6   0  -4  -12.90    6.20
   6   0   4   -3.10    1.10
  -6   1   4   -0.20    5.70
  -5   1   4   25.20    5.60
   4  -1  -4   72.79   10.30
  -4   1   4   81.49    7.30
   3  -1  -4  189.68   10.20
   3  -1  -4  195.68   12.20
  -3   1   4  181.98   11.40
   2  -1  -4   30.70    4.20
  -2   1   4   24.50    1.90
  -2   1   4   28.80    3.00
  -1   1   4  511.35   27.40
  -1   1   4  532.75   26.90
   0  -1  -4  481.15   26.60
   0  -1  -4  506.35   27.20
   0   1   4  547.45   26.30
  -1  -1  -4  146.89    8.30
  -1  -1  -4  164.08    9.60
   1   1   4  159.18    8.20
  -2  -1  -4   43.50    4.80
   2   1   4   41.40    2.60
  -3  -1  -4  145.59   10.20
   3   1   4  140.39    7.70
  -4  -1  -4    1.70    3.50
   4   1   4    3.00    0.90
  -5  -1  -4   -0.20    5.40
  -6   2   4   12.70    6.10
   5  -2  -4   31.20   11.20
  -5   2   4   31.80    5.60
  -4   2   4  138.19    9.90
   3  -2  -4    4.70    3.70
  -3   2   4    1.00    2.30
   2  -2  -4   51.29    5.60
  -2   2   4   46.50    4.20
   1  -2  -4   24.70    4.70
  -1   2   4   16.00    3.10
   0  -2  -4  100.39    7.20
   0  -2  -4   87.19    6.40
   0   2   4  104.69    5.20
  -1  -2  -4  172.38    9.90
  -1  -2  -4  181.38   11.00
   1   2   4  168.98    9.20
  -2  -2  -4  180.68   11.80
   2   2   4  193.68   10.10
  -3  -2  -4  650.43   36.50
   3   2   4  681.13   34.60
  -4  -2  -4   10.60    4.80
   4   2   4    4.10    1.10
  -5  -2  -4   32.90    6.50
   5   2   4   46.60    3.00
  -6   3   4    7.00    5.90
   5  -3  -4   76.39   17.00
  -5   3   4   38.50    7.40
   4  -3  -4  321.07   21.30
  -4   3   4  335.97   19.30
   3  -3  -4  577.04   30.30
  -3   3   4  519.45   29.70
   2  -3  -4   86.99    7.40
  -2   3   4   90.69    6.50
   1  -3  -4   87.79    7.10
   0  -3  -4  524.95   26.20
   0  -3  -4  402.36   25.70
  -1  -3  -4   16.10    3.10
  -1  -3  -4   12.30    3.30
   1   3   4   11.70    1.50
  -2  -3  -4  294.67   18.00
   2   3   4  298.97   15.70
  -3  -3  -4   43.90    6.60
   3   3   4   42.90    3.00
  -4  -3  -4    2.60    4.30
   4   3   4    1.80    1.10
  -5  -3  -4  179.18   14.90
   5   3   4  184.48   10.00
   5  -4  -4   96.79   16.50
  -5   4   4   82.39    9.10
   4  -4  -4   62.99    8.20
  -4   4   4   62.49    6.90
  -3   4   4   17.20    3.50
   2  -4  -4  179.68   11.90
  -2   4   4  179.38   11.40
   1  -4  -4   21.20    4.00
   0  -4  -4  130.89   10.30
   0  -4  -4  124.49    9.60
   0   4   4  144.89    7.70
  -1  -4  -4  623.44   34.60
   1   4   4  626.64   32.50
  -2  -4  -4    0.80    3.50
   2   4   4    4.70    2.00
  -3  -4  -4   22.00    5.70
   3   4   4   10.50    1.70
  -4  -4  -4    9.60    6.40
   4   4   4   11.80    1.80
  -5  -4  -4   90.69   12.10
   5   4   4   89.09    5.40
   5  -5  -4    0.80    8.30
  -5   5   4    3.90    4.90
   4  -5  -4   24.50    6.90
  -4   5   4   21.80    4.90
   3  -5  -4   88.09    9.80
  -3   5   4   90.89    7.70
   2  -5  -4  100.89    9.10
  -2   5   4   97.29    8.20
   1  -5  -4  117.89   10.00
   0  -5  -4  282.47   17.60
   0  -5  -4  301.57   19.10
  -1  -5  -4  120.89   10.70
   1   5   4  131.29    7.30
  -2  -5  -4  122.49   10.80
   2   5   4  117.39    7.00
  -3  -5  -4    8.50    5.30
   3   5   4    3.70    1.40
  -4  -5  -4   11.30    6.40
   4   5   4   12.00    1.90
   5  -6  -4   35.90   10.20
  -5   6   4   29.90    6.50
   4  -6  -4   26.20    7.40
  -4   6   4   18.90    5.80
   3  -6  -4   25.00    5.70
  -3   6   4   37.40    6.80
   2  -6  -4  106.29   10.00
  -2   6   4  110.99    9.50
   1  -6  -4    5.10    4.50
  -1   6   4   -2.10    3.70
   0  -6  -4    9.00    6.10
   0  -6  -4    9.90    5.50
  -1  -6  -4   77.19   10.10
   1   6   4   78.39    5.20
  -2  -6  -4   14.20    6.20
   2   6   4    9.30    2.00
  -3  -6  -4    7.20    7.20
  -4  -6  -4  210.98   17.70
   4   6   4  207.48   11.50
   4  -7  -4   21.10    9.60
  -4   7   4   13.10    6.30
   3  -7  -4   70.19   12.60
  -3   7   4   75.89    9.00
   2  -7  -4   10.80    6.20
  -2   7   4    8.60    4.70
   1  -7  -4    9.70    6.00
  -1   7   4    0.30    4.50
   0  -7  -4  152.48   14.50
   0  -7  -4  155.18   15.10
  -1  -7  -4   29.50    7.80
   1   7   4   41.90    4.70
  -2  -7  -4    5.80    7.70
   2   7   4    0.50    2.10
  -3  -7  -4    3.60    8.00
   3   7   4    3.90    2.00
   3  -8  -4  107.09   16.40
  -3   8   4  101.19   11.40
   2  -8  -4   14.60    7.60
  -2   8   4   16.00    5.80
   1  -8  -4   60.99    9.20
  -1   8   4   65.89    9.50
   0  -8  -4  116.09   20.30
  -1  -8  -4    2.70    8.70
  -2  -8  -4   26.70   10.40
   1  -9   5   16.20    4.50
  -2  -8   5   45.50    5.20
   1   8  -5    0.20   12.90
  -1  -8   5   -2.10    3.20
   0  -8   5  245.78   15.60
   1  -8   5    2.60    3.90
   2  -8   5    7.80    5.80
   3  -8   5   66.49   10.30
  -3  -7   5   35.40    4.20
  -2  -7   5    0.20    2.30
  -1  -7   5   35.30    4.10
   0  -7   5   24.80    4.40
   0  -7   5   26.80    4.10
  -1   7  -5   19.20    7.30
   1  -7   5   23.70    4.60
  -2   7  -5   72.69   11.30
   2  -7   5   74.29    8.40
  -3   7  -5    5.40    7.30
   3  -7   5    4.80    5.40
  -4   7  -5   59.29   10.90
   4  -7   5   73.89   13.30
  -3  -6   5    2.10    2.00
  -2  -6   5  481.65   25.70
  -1  -6   5   25.50    3.20
   0  -6   5   10.40    2.40
   0  -6   5   11.50    3.10
  -1   6  -5  214.78   14.40
   1  -6   5  218.08   13.70
  -2   6  -5    3.90    5.10
   2  -6   5    2.20    3.50
  -3   6  -5   45.40    8.60
   3  -6   5   50.49    8.80
  -4   6  -5   17.40    6.90
   4  -6   5    5.30    8.20
   5   5  -5    1.70    1.90
  -4  -5   5   50.09   10.70
  -3  -5   5    3.00    1.80
  -3  -5   5   -4.40    6.10
   2   5  -5  328.87   20.50
  -2  -5   5  332.07   17.90
  -1  -5   5  122.99   10.40
  -1  -5   5  132.19    7.70
   0   5  -5   35.80    5.00
   0  -5   5   37.10    5.00
   0  -5   5   39.70    3.40
  -1   5  -5   11.40    3.40
   1  -5   5    8.80    3.50
   1  -5   5    9.20    2.10
  -2   5  -5   59.99    6.90
   2  -5   5   63.69    6.90
  -3   5  -5    7.90    4.50
   3  -5   5   -0.40    4.30
  -4   5  -5   16.80    6.00
   4  -5   5   22.00    7.00
  -5   5  -5   58.79   11.10
   5   4  -5   23.70    2.90
  -5  -4   5   19.20   13.70
  -4  -4   5   11.50    7.20
  -4  -4   5   11.70    2.40
  -3  -4   5   13.50    2.20
  -3  -4   5   13.30    5.50
   2   4  -5   74.69    7.40
  -2  -4   5   75.69    5.10
  -2  -4   5   87.89    7.80
  -1  -4   5   -0.10    1.30
  -1  -4   5    3.80    3.00
   0   4  -5  239.88   13.30
   0  -4   5  242.28   12.90
   0  -4   5  227.78   13.60
  -1   4  -5  329.97   18.10
   1  -4   5  319.77   18.30
   1  -4   5  323.07   17.30
  -2   4  -5  133.09    8.80
   2  -4   5  107.29    8.70
   2  -4   5  121.59    7.30
   3  -4   5    2.80    4.20
  -4   4  -5   91.59    9.60
  -5   4  -5   40.90    8.10
   5   3  -5    2.50    1.50
  -5  -3   5   -1.70    7.30
  -4  -3   5   10.60    5.80
  -4  -3   5   14.10    2.30
   3   3  -5  274.67   16.80
  -3  -3   5  326.17   18.40
  -3  -3   5  303.27   16.20
   2   3  -5  355.76   20.50
  -2  -3   5  378.56   19.90
  -2  -3   5  388.56   21.10
   1   3  -5   -0.20    4.20
  -1  -3   5    8.00    2.40
  -1  -3   5    9.50    1.50
   0   3  -5  120.69    6.90
   0  -3   5  120.99    6.90
   0  -3   5  119.79    7.60
  -1   3  -5  145.19    9.30
   1  -3   5  157.58    8.50
   1  -3   5  151.38    9.40
  -2   3  -5   21.80    4.00
   2  -3   5   25.60    4.60
   2  -3   5   19.60    2.50
  -3   3  -5    8.40    3.60
   3  -3   5    8.80    1.70
   3  -3   5    9.90    3.90
  -4   3  -5   84.29    9.10
   4  -3   5   84.49   12.60
  -5   3  -5   52.59    9.50
  -6  -2   5   12.20    8.90
  -5  -2   5    5.30    5.90
  -4  -2   5   69.19    4.90
  -4  -2   5   63.19    8.50
   3   2  -5  464.15   25.50
  -3  -2   5  492.95   26.70
  -3  -2   5  464.65   25.00
   2   2  -5   84.79    6.10
  -2  -2   5   93.79    5.50
  -2  -2   5  100.79    6.80
   1   2  -5  887.21   46.30
  -1  -2   5  909.21   46.00
  -1  -2   5  859.31   45.80
   0  -2   5  257.27   13.90
   0  -2   5  265.87   14.20
  -1   2  -5    0.70    1.40
   1  -2   5    1.70    2.40
   1  -2   5   -0.90    1.00
  -2   2  -5   61.99    5.30
   2  -2   5   55.69    5.50
   2  -2   5   61.89    3.60
  -3   2  -5  207.08   13.50
   3  -2   5  221.58   11.40
  -4   2  -5   24.50    5.80
   4  -2   5   24.50    2.10
  -5   2  -5  103.69   11.20
   5  -2   5  110.79    6.60
  -6   2  -5   16.40    7.10
   6   1  -5   -1.60    3.10
  -6  -1   5    7.90    7.10
   5   1  -5   66.29    4.60
  -5  -1   5   63.89    9.30
  -4  -1   5    4.10    4.10
   3   1  -5  240.48   13.90
  -3  -1   5  241.18   13.00
  -3  -1   5  234.18   14.40
   2   1  -5    4.10    2.60
  -2  -1   5   -0.70    1.70
  -2  -1   5    0.10    0.80
   1   1  -5 1907.01   94.09
  -1  -1   5 1728.03   93.89
  -1  -1   5 1850.21   93.99
   0   1  -5  188.08   11.20
   0  -1   5  195.68   10.30
  -1   1  -5 1164.18   60.69
   1  -1   5 1131.29   60.59
   1  -1   5 1225.28   60.19
  -2   1  -5   79.29    6.10
   2  -1   5   76.19    5.40
   2  -1   5   79.09    4.20
  -3   1  -5  275.47   17.00
   3  -1   5  289.57   15.00
   3  -1   5  297.97   16.30
  -4   1  -5   29.10    5.40
   4  -1   5   20.40    1.60
  -5   1  -5    2.00    5.20
   5  -1   5    0.70    0.90
  -6   1  -5   -7.30    6.60
  -6   0   5   17.30    6.80
   5   0  -5  106.99    6.80
  -5   0   5  122.79   11.00
   4   0  -5  115.89   11.20
   4   0  -5  125.49    7.20
  -4   0   5  134.79   10.00
   3   0  -5    0.10    3.00
  -3   0   5   -1.40    1.10
  -3   0   5    0.90    2.50
   2   0  -5  122.29    7.70
  -2   0   5  114.99    7.40
  -2   0   5  117.89    6.60
  -1   0   5   76.39    4.70
  -1   0   5   76.39    4.40
   0   0  -5  104.19    6.10
   0   0  -5  110.19    6.40
   0   0   5  107.39    5.80
  -1   0  -5    8.10    1.90
  -1   0  -5    7.20    2.10
   1   0   5    6.90    0.70
  -2   0  -5  609.44   33.10
  -2   0  -5  634.84   32.40
   2   0   5  609.64   31.80
  -3   0  -5  294.77   17.60
   3   0   5  300.37   15.60
  -4   0  -5   42.70    7.40
   4   0   5   41.70    2.60
  -5   0  -5    4.30    5.70
   5   0   5    3.10    0.90
  -6   0  -5   22.80    7.70
  -6   1   5   12.60    6.20
  -5   1   5   80.19    8.80
   4  -1  -5   15.10    5.70
  -4   1   5    5.30    3.40
   3  -1  -5    6.00    3.70
  -3   1   5    3.30    2.30
   2  -1  -5  361.86   19.50
  -2   1   5  358.06   19.50
  -2   1   5  351.26   18.60
   1  -1  -5  300.77   16.40
  -1   1   5  304.67   15.70
   0  -1  -5  793.52   41.80
   0  -1  -5  731.83   41.00
   0   1   5  853.11   40.70
  -1  -1  -5  334.67   18.60
  -1  -1  -5  370.66   19.80
   1   1   5  369.86   18.50
  -2  -1  -5  269.67   16.30
   2   1   5  287.97   14.60
  -3  -1  -5   65.79    7.10
   3   1   5   71.09    4.00
  -4  -1  -5   -1.10    4.00
   4   1   5    3.20    0.90
  -5  -1  -5    2.10    5.80
   5   1   5    3.90    1.00
  -6   2   5   37.90    7.50
   5  -2  -5    9.70    9.90
  -5   2   5   17.40    4.70
   4  -2  -5  102.79   12.50
  -4   2   5  109.39    8.40
   3  -2  -5   31.70    6.50
  -3   2   5   28.20    4.50
   2  -2  -5  140.99    9.20
  -2   2   5  131.09    8.40
   1  -2  -5  383.66   21.10
  -1   2   5  392.96   20.00
   0  -2  -5    6.20    4.70
   0  -2  -5    0.30    2.30
   0   2   5    2.30    0.40
  -1  -2  -5   12.60    2.60
  -1  -2  -5   13.20    3.50
   1   2   5   13.10    1.20
  -2  -2  -5  258.87   15.90
   2   2   5  275.37   14.10
  -3  -2  -5   65.79    7.00
   3   2   5   58.99    3.70
  -4  -2  -5   35.60    6.10
   4   2   5   26.90    2.20
  -5  -2  -5   40.60   13.10
  -6   3   5   16.70    6.30
   5  -3  -5  111.39   18.30
  -5   3   5  122.29   10.50
   4  -3  -5   69.99   11.00
  -4   3   5   84.19    7.40
   3  -3  -5    1.50    3.90
   2  -3  -5   37.70    5.80
  -2   3   5   38.50    4.50
   1  -3  -5   10.40    3.20
   0  -3  -5   65.59    6.70
   0  -3  -5   61.09    6.60
   0   3   5   62.49    3.50
  -1  -3  -5  607.04   30.90
  -1  -3  -5  574.44   32.00
   1   3   5  551.04   29.90
  -2  -3  -5  476.95   27.60
   2   3   5  496.35   25.40
  -3  -3  -5    6.60    4.10
   3   3   5    8.60    1.30
  -4  -3  -5  139.99   11.80
   4   3   5  140.09    7.80
  -5  -3  -5    1.30    6.60
   5   3   5    4.10    1.20
   5  -4  -5   70.89   10.20
  -5   4   5   60.29    8.00
   4  -4  -5  244.28   17.20
  -4   4   5  217.18   14.60
   3  -4  -5   55.59    8.10
  -3   4   5   49.99    5.50
   2  -4  -5    5.90    3.60
  -2   4   5    6.80    3.00
   1  -4  -5  287.27   17.10
   0  -4  -5   75.09    8.00
   0  -4  -5   72.59    7.60
   0   4   5   73.49    4.20
  -1  -4  -5  151.88   11.40
   1   4   5  148.09    8.20
  -2  -4  -5   25.70    5.10
   2   4   5   28.40    2.50
  -3  -4  -5   12.70    5.10
   3   4   5   10.60    1.60
  -4  -4  -5  167.58   13.90
   4   4   5  176.88    9.60
  -5  -4  -5    6.80    6.60
   5  -5  -5    7.90    9.50
  -5   5   5   16.20    5.20
   4  -5  -5   49.40    8.00
  -4   5   5   40.30    7.10
   3  -5  -5   60.99    9.10
  -3   5   5   66.79    6.90
   2  -5  -5   -2.70    4.10
  -2   5   5   -0.20    3.20
   1  -5  -5    1.20    4.10
   0  -5  -5  435.96   24.70
   0  -5  -5  421.86   25.90
  -1  -5  -5    1.60    4.40
   1   5   5    3.80    1.30
  -2  -5  -5   -4.10    4.70
   2   5   5    0.90    1.30
  -3  -5  -5    0.90    5.40
  -4  -5  -5  168.88   15.20
   4   5   5  193.78   10.30
   5  -6  -5  -14.80    8.90
  -5   6   5    9.10    5.60
   4  -6  -5   50.49    9.90
  -4   6   5   46.50    8.50
   3  -6  -5   57.99    9.40
  -3   6   5   51.79    7.50
   2  -6  -5   14.60    5.50
  -2   6   5   14.50    4.60
   1  -6  -5  191.28   13.90
  -1   6   5  192.68   13.30
   0  -6  -5   81.29   10.60
   0  -6  -5   66.39   10.60
  -1  -6  -5   81.49    9.70
   1   6   5   57.69    4.40
  -2  -6  -5    8.90    5.70
   2   6   5    3.80    1.60
  -3  -6  -5    8.50    9.30
   3   6   5    1.40    1.60
   4  -7  -5   35.50   10.00
  -4   7   5   21.50    6.80
   3  -7  -5   20.70    8.10
  -3   7   5   18.50    5.80
   2  -7  -5   13.90    6.30
  -2   7   5    4.80    4.90
   1  -7  -5    9.10    6.40
  -1   7   5    8.50    4.90
   0  -7  -5   61.99    9.10
   0  -7  -5   54.79    9.70
  -1  -7  -5    3.90    6.50
  -2  -7  -5    6.30   10.80
   2   7   5   -1.10    2.00
  -3  -7  -5  255.07   19.90
   3   7   5  260.37   14.10
   3  -8  -5    1.30    9.10
  -3   8   5    6.70    6.00
   2  -8  -5   20.60    8.40
  -2   8   5   18.60    6.00
   1  -8  -5  113.09   14.80
  -1   8   5  118.89   15.90
  -1  -8  -5   -4.80    8.50
   1  -9   6   -4.20    4.30
  -2  -8   6    3.30    3.00
   1   8  -6   67.49   16.60
  -1  -8   6   26.10    4.20
   0  -8   6   11.60    3.90
   1  -8   6   52.69    7.10
   2  -8   6   90.39    9.70
   3  -8   6   11.50    6.10
  -3  -7   6   30.10    3.90
  -2  -7   6    4.60    2.40
   1   7  -6  390.16   27.10
   0  -7   6    5.40    2.60
   0  -7   6    5.30    3.40
   1  -7   6   21.70    4.30
   2  -7   6   89.59    8.70
   3  -7   6    3.60    5.10
   4  -7   6   36.30    6.80
  -3  -6   6    0.60    2.10
   2   6  -6   56.89    8.70
  -2  -6   6   50.69    4.30
  -1  -6   6    1.00    1.70
   0  -6   6   71.99    5.50
   0  -6   6   75.89    6.70
   1  -6   6   99.29    6.90
   1  -6   6  104.99    8.20
   2  -6   6   -5.00    2.90
  -3   6  -6  104.79   11.20
   3  -6   6   96.79   10.10
  -4   6  -6  241.48   18.90
   4  -6   6  262.07   17.90
   5   5  -6   11.40    2.10
  -4  -5   6    0.00    1.90
  -3  -5   6  587.44   31.00
   2   5  -6   -1.50    4.50
  -2  -5   6    1.00    1.30
  -1  -5   6   -1.70    1.50
   0  -5   6  349.07   19.10
   0  -5   6  363.46   20.00
  -1   5  -6    5.80    3.30
   1  -5   6    2.90    3.80
   1  -5   6   -1.80    1.80
  -2   5  -6  143.09   10.50
   2  -5   6  146.29    9.50
   2  -5   6  136.19   10.10
  -3   5  -6    2.90    4.80
   3  -5   6    0.50    4.30
  -4   5  -6   86.29   10.60
   4  -5   6   73.79   11.70
  -5   5  -6   25.90    8.40
   5   4  -6   28.80    3.10
  -5  -4   6   30.60   11.30
  -4  -4   6   43.20    3.90
  -4  -4   6   37.10    8.40
  -3  -4   6  184.88   13.40
  -3  -4   6  164.18    9.80
   2   4  -6  110.79    8.80
  -2  -4   6  117.99    9.40
   1   4  -6  132.99   11.60
  -1  -4   6  155.98    8.60
  -1  -4   6  153.78   10.50
   0   4  -6   -1.20    2.20
   0  -4   6    1.70    1.40
   0  -4   6   -0.80    1.80
  -1   4  -6  161.58   10.10
   1  -4   6  169.18    9.30
   1  -4   6  159.28   10.20
  -2   4  -6  107.49    8.20
   2  -4   6  111.09    6.90
   2  -4   6  104.69    8.10
   3  -4   6   47.90    7.80
  -4   4  -6  132.29   12.00
   4  -4   6  129.39   13.60
   5   3  -6   25.40    3.00
  -5  -3   6   34.70    8.50
  -4  -3   6    3.90    1.90
  -4  -3   6   -1.50    6.10
   3   3  -6   99.59    7.60
  -3  -3   6   90.59    8.80
  -3  -3   6   95.39    6.00
   2   3  -6   43.90    5.20
  -2  -3   6   47.10    6.30
  -2  -3   6   46.00    3.40
   1   3  -6  276.77   16.00
  -1  -3   6  266.97   14.80
  -1  -3   6  261.97   14.40
   0  -3   6  723.43   37.90
   0  -3   6  734.33   38.30
  -1   3  -6   13.20    2.50
   1  -3   6   16.40    2.20
   1  -3   6   10.00    2.40
  -2   3  -6    8.80    3.00
   2  -3   6    7.00    2.80
   2  -3   6    5.30    1.50
  -3   3  -6  273.07   16.30
   3  -3   6  273.87   16.40
   3  -3   6  259.57   14.50
  -4   3  -6   21.50    5.60
   4  -3   6    8.20   10.20
   4  -3   6   17.10    2.70
  -5   3  -6   -4.20    6.50
   6   2  -6    8.80    2.30
  -6  -2   6    7.50    8.50
  -5  -2   6   10.00    6.40
  -4  -2   6  347.27   18.00
  -4  -2   6  310.07   20.40
   3   2  -6  154.18   10.10
  -3  -2   6  155.48    8.90
  -3  -2   6  159.88   10.90
   2   2  -6   57.29    5.20
  -2  -2   6   60.09    4.10
  -2  -2   6   63.39    5.40
   1   2  -6  242.88   13.80
  -1  -2   6  248.08   13.00
  -1  -2   6  232.68   12.90
   0   2  -6    1.10    5.20
   0  -2   6    6.10    6.80
  -1   2  -6    6.70    1.70
   1  -2   6    8.10    1.90
   1  -2   6    5.70    1.30
  -2   2  -6    5.10    2.50
   2  -2   6    3.00    0.90
   2  -2   6   11.10    4.60
  -3   2  -6   70.59    7.10
   3  -2   6   69.89    4.00
   3  -2   6   65.69    7.20
  -4   2  -6   90.09    9.30
   4  -2   6   82.09    4.90
  -5   2  -6  132.29   11.90
   5  -2   6  115.09    7.20
  -6  -1   6   -3.50    8.30
   5   1  -6   21.20    2.90
  -5  -1   6   29.50    6.20
  -4  -1   6  321.47   19.90
  -4  -1   6  336.27   17.90
   3   1  -6    7.60    3.00
  -3  -1   6    6.70    1.60
  -3  -1   6    7.60    3.20
   2   1  -6  852.71   44.80
  -2  -1   6  851.31   44.70
  -2  -1   6  889.01   45.30
   1   1  -6   26.30    3.20
  -1  -1   6   14.30    2.00
  -1  -1   6   20.90    2.20
   0   1  -6   34.70    4.50
   0  -1   6   38.50    2.80
  -1   1  -6  416.66   22.20
  -2   1  -6  381.16   21.90
   2  -1   6  395.26   21.30
   2  -1   6  418.86   20.60
  -3   1  -6   46.00    6.00
   3  -1   6   48.80    2.80
  -4   1  -6   67.89    8.00
   4  -1   6   63.29    3.70
  -5   1  -6   27.80    6.90
   5  -1   6   35.00    2.50
  -6   0   6   57.09   11.40
   5   0  -6    8.30    2.20
  -5   0   6    2.00    5.30
   4   0  -6   40.40    8.90
  -4   0   6   55.09    6.90
   3   0  -6    8.00    3.40
  -3   0   6    8.50    2.80
  -3   0   6    7.20    1.60
   2   0  -6  695.03   36.10
  -2   0   6  681.53   37.00
  -2   0   6  688.43   35.70
   1   0  -6  278.87   14.90
  -1   0   6  286.57   14.70
  -1   0   6  270.77   14.90
   0   0  -6  971.10   53.59
   0   0  -6  996.70   53.39
   0   0   6 1137.69   53.39
  -1   0  -6  228.78   13.10
  -1   0  -6  224.78   12.60
   1   0   6  237.48   12.00
  -2   0  -6  392.06   21.40
  -2   0  -6  399.46   22.30
   2   0   6  415.96   20.80
  -3   0  -6  146.69   10.40
   3   0   6  141.39    7.60
  -4   0  -6    2.60    4.30
   4   0   6    5.30    0.90
  -5   0  -6    0.10    5.30
   5   0   6    2.40    0.80
  -6   1   6   83.29   11.30
   5  -1  -6   25.80   13.00
  -5   1   6   42.60    6.60
   4  -1  -6    5.40    7.40
  -4   1   6    2.70    3.40
   3  -1  -6   19.00    4.30
  -3   1   6   14.20    3.00
   2  -1  -6   98.69    6.90
  -2   1   6   95.29    6.30
  -2   1   6   94.19    5.40
  -1   1   6   43.40    3.80
  -1   1   6   43.60    2.80
   0  -1  -6   69.09    5.90
   0   1   6   81.29    4.20
  -1  -1  -6 1002.10   52.29
  -1  -1  -6  982.40   51.19
   1   1   6  993.50   50.89
  -2  -1  -6  178.68   11.50
   2   1   6  187.08    9.70
   3   1   6   49.40    3.10
  -4  -1  -6   18.70    4.90
   4   1   6   15.60    1.50
  -5  -1  -6   48.40    9.00
   5   1   6   54.79    3.30
  -6   2   6   43.30    8.00
   5  -2  -6   -3.70   10.10
  -5   2   6    4.70    4.20
   4  -2  -6   13.90    6.10
  -4   2   6    5.80    3.10
   3  -2  -6  273.57   16.50
  -3   2   6  271.57   16.00
   2  -2  -6  131.59    9.00
  -2   2   6  121.09    8.10
   1  -2  -6  158.88   10.10
  -1   2   6  169.68    8.80
   0  -2  -6  514.25   28.00
   0  -2  -6  481.25   27.00
   0   2   6  535.55   26.30
  -1  -2  -6  234.88   13.10
  -1  -2  -6  240.68   14.30
   1   2   6  226.18   12.20
  -2  -2  -6   50.69    5.80
   2   2   6   46.90    2.90
  -3  -2  -6   -0.60    3.20
   3   2   6   -0.60    0.70
  -4  -2  -6   10.80    4.50
   4   2   6   18.20    1.80
  -5  -2  -6   43.00    7.60
   5   2   6   70.29    3.90
  -6   3   6    6.50    5.80
   5  -3  -6   43.50   10.70
  -5   3   6   29.20    6.10
   4  -3  -6   49.60    7.60
  -4   3   6   53.99    6.50
  -3   3   6   49.00    5.50
   2  -3  -6  165.28   10.80
  -2   3   6  146.39    9.90
   1  -3  -6   37.50    5.70
   0  -3  -6   23.80    3.80
   0  -3  -6    9.40    3.80
   0   3   6   17.10    1.30
  -1  -3  -6  356.86   20.60
   1   3   6  342.57   18.20
  -2  -3  -6  209.98   14.20
   2   3   6  215.18   11.40
  -3  -3  -6   66.89    7.90
   3   3   6   71.89    4.30
  -4  -3  -6   54.69    8.80
   4   3   6   64.39    3.90
  -5  -3  -6   40.40    7.80
   5   3   6   47.40    3.10
   5  -4  -6  125.89   17.40
  -5   4   6  149.39   12.40
   4  -4  -6    6.00    6.60
  -4   4   6   -2.60    3.60
   3  -4  -6   30.90    5.40
  -3   4   6   26.40    4.70
   2  -4  -6    3.50    4.60
  -2   4   6   -2.00    3.50
   1  -4  -6   30.70    4.90
   0  -4  -6  685.13   37.80
   0  -4  -6  710.83   38.80
   0   4   6  707.53   36.10
  -1  -4  -6  185.78   13.30
   1   4   6  186.18   10.00
  -2  -4  -6   10.00    4.90
   2   4   6   13.60    1.90
  -3  -4  -6  236.18   16.60
   3   4   6  252.57   13.20
  -4  -4  -6   36.70    7.50
   4   4   6   27.10    2.50
   5  -5  -6   95.99   17.40
  -5   5   6   98.49    9.90
   4  -5  -6   39.70    8.90
  -4   5   6   40.20    7.40
   3  -5  -6    3.40    5.00
  -3   5   6   -0.90    3.10
   2  -5  -6  154.28   11.80
  -2   5   6  160.28   11.40
   0  -5  -6   16.80    5.40
   0  -5  -6    4.10    5.10
  -1  -5  -6   19.60    5.60
   1   5   6   29.80    2.50
  -2  -5  -6   61.49    8.30
   2   5   6   58.49    4.00
  -3  -5  -6  113.29   12.00
   3   5   6  125.59    7.10
  -4  -5  -6    4.80    7.10
   4   5   6    4.60    1.40
  -4   6   6   20.90    7.60
   3  -6  -6   11.90    6.10
  -3   6   6    5.30    4.70
   2  -6  -6   83.79   10.30
  -2   6   6   62.99    8.10
   1  -6  -6  125.29   11.90
  -1   6   6  129.79   10.70
   0  -6  -6    5.70    5.90
   0  -6  -6   -0.10    5.70
  -1  -6  -6   37.20    7.30
   1   6   6   24.10    2.90
  -2  -6  -6   -0.70    5.40
   2   6   6    7.30    1.70
  -3  -6  -6  301.17   20.40
   3   6   6  288.97   16.20
   4  -7  -6   57.79   10.70
  -4   7   6   36.10    7.80
  -3   7   6   14.20    9.60
   2  -7  -6   83.99   10.20
  -2   7   6   74.39    9.20
   1  -7  -6   65.99   11.40
  -1   7   6   54.59    8.60
   0  -7  -6   -2.30    7.40
   0  -7  -6   -2.10    7.20
  -1  -7  -6   -1.80    6.40
  -2  -7  -6   43.60    9.10
   2   7   6   34.40    3.70
   3  -8  -6   12.20    8.80
  -3   8   6   -2.10    5.80
   2  -8  -6   13.60    8.10
  -2   8   6   21.90    6.60
  -1   8   6   17.40    6.10
  -1  -8  -6   22.20    9.40
   0   9  -7   41.50   12.10
   1  -9   7   13.90    4.70
  -2  -8   7   10.30    3.20
   1   8  -7   67.49   16.80
  -1  -8   7   38.80    5.30
   1  -8   7   27.60    5.00
   2  -8   7   17.50    5.10
   3  -8   7   -2.00    5.20
  -3  -7   7    1.40    2.30
   2   7  -7   95.99   13.80
  -2  -7   7   82.89    6.30
   1   7  -7   28.00    9.30
   0  -7   7  110.59    7.40
   0  -7   7  103.19    8.60
   1  -7   7  184.28   13.50
   1  -7   7  202.38   12.90
   2  -7   7   -2.40    3.70
   4  -7   7   -0.50    5.50
  -4  -6   7    5.40    2.40
  -3  -6   7   48.50    4.30
   2   6  -7  181.88   15.20
  -2  -6   7  202.08   11.20
   1   6  -7   14.90    7.80
  -1  -6   7    8.70    2.00
   0  -6   7   75.09    6.60
   0  -6   7   76.59    5.60
   1  -6   7   27.60    4.70
   1  -6   7   31.20    5.50
   2  -6   7    0.10    3.20
  -3   6  -7  147.89   13.70
   3  -6   7  127.99   11.00
  -4   6  -7    2.40    9.10
   4  -6   7   10.60    7.00
  -4  -5   7   38.70    3.90
  -3  -5   7    3.50    1.90
  -2  -5   7    4.40    1.70
   1   5  -7  229.28   15.60
  -1  -5   7  214.18   12.30
   0  -5   7   40.40    3.60
   1  -5   7    9.90    2.80
   1  -5   7   15.70    2.60
  -2   5  -7   44.70    6.60
   2  -5   7   45.20    4.60
   2  -5   7   36.10    5.90
  -3   5  -7  494.15   28.10
   3  -5   7  479.05   27.60
  -4   5  -7   46.00    9.00
   4  -5   7   28.20    6.80
  -5   5  -7   15.50    8.90
   5   4  -7   18.60    2.70
  -4  -4   7  402.86   21.20
  -4  -4   7  378.16   26.10
  -3  -4   7   -0.30    1.40
   2   4  -7   26.90    5.90
  -2  -4   7   27.50    2.80
   1   4  -7  237.78   15.30
  -1  -4   7  233.88   14.00
  -1  -4   7  238.48   13.00
   0   4  -7   39.80    6.00
   0  -4   7   38.60    3.40
   0  -4   7   41.30    4.20
  -1   4  -7   94.39    7.00
   1  -4   7   97.59    7.10
   1  -4   7   95.39    6.00
  -2   4  -7   13.50    3.70
   2  -4   7    9.90    3.10
   2  -4   7    8.20    2.30
  -3   4  -7  141.79   12.80
   3  -4   7  144.99    9.10
   3  -4   7  146.89   11.10
  -4   4  -7    2.40    6.10
   4  -4   7    8.70    6.20
  -5   4  -7   92.09   12.30
  -5  -3   7   32.20    9.20
  -4  -3   7   75.89   11.40
  -4  -3   7   90.79    5.90
   3   3  -7   36.50    5.60
  -3  -3   7   35.70    3.30
  -3  -3   7   37.40    5.80
   2   3  -7  155.58   10.00
  -2  -3   7  168.18   10.30
  -2  -3   7  151.58    9.00
   1   3  -7   -2.00    3.20
  -1  -3   7    1.60    1.20
   0  -3   7  100.69    6.00
  -1   3  -7  336.87   18.70
   1  -3   7  373.46   18.50
   1  -3   7  328.07   18.90
  -2   3  -7  150.98    9.60
   2  -3   7  137.99    9.40
   2  -3   7  145.69    8.40
  -3   3  -7  162.58   11.40
   3  -3   7  170.48   11.20
   3  -3   7  149.39    9.20
  -4   3  -7   27.90    6.60
   4  -3   7   29.50    3.60
   4  -3   7   16.90    8.20
  -5   3  -7   -3.80    6.90
  -6  -2   7   15.20    9.60
   5   2  -7    3.40    1.80
  -5  -2   7    6.90    7.20
  -4  -2   7   58.99    4.70
  -4  -2   7   63.49    9.10
   3   2  -7  108.09    8.00
  -3  -2   7   98.79    6.40
  -3  -2   7  111.29    8.60
   2   2  -7  258.17   14.90
  -2  -2   7  266.57   14.50
  -2  -2   7  285.47   15.50
   1   2  -7  667.13   35.60
  -1  -2   7  681.73   35.10
   0   2  -7    6.00    4.10
   0  -2   7   11.90    1.70
  -1   2  -7   38.60    3.70
   1  -2   7   40.50    3.70
   1  -2   7   37.20    3.00
  -2   2  -7  519.75   28.90
   2  -2   7  550.04   27.90
   2  -2   7  538.45   28.60
  -3   2  -7    6.50    3.70
   3  -2   7    5.70    3.50
   3  -2   7    4.20    1.10
  -4   2  -7    6.70    5.00
   4  -2   7    5.70    1.30
  -5   2  -7   42.10    7.70
   5  -2   7   43.90    4.00
  -6  -1   7    7.40    8.70
   5   1  -7  256.37   14.30
  -5  -1   7  262.57   17.90
   4   1  -7   46.50    9.20
  -4  -1   7   29.30    5.50
  -4  -1   7   26.80    3.80
   3   1  -7  143.39    9.20
  -3  -1   7  133.19    8.00
  -3  -1   7  135.99    9.50
   2   1  -7  153.78    9.00
  -2  -1   7  160.38    9.40
  -2  -1   7  152.88    8.70
   1   1  -7   48.30    3.90
  -1  -1   7   43.90    3.30
   0   1  -7   -0.70    2.40
   0  -1   7   -2.60    1.00
  -1   1  -7   59.49    4.70
  -1   1  -7   45.00    6.30
   1  -1   7   65.59    3.60
  -2   1  -7   41.50    4.90
   2  -1   7   47.60    2.70
  -3   1  -7   88.09    7.90
   3  -1   7   92.39    5.00
  -4   1  -7  385.16   23.30
   4  -1   7  392.16   20.20
  -5   1  -7   40.10    7.80
   5  -1   7   37.00    2.70
  -6   0   7   13.30    7.70
  -5   0   7  157.08   12.90
   4   0  -7   11.30    5.90
  -4   0   7    6.20    3.90
   3   0  -7  515.15   27.90
  -3   0   7  506.15   28.00
  -3   0   7  515.25   26.90
   2   0  -7    1.50    2.20
  -2   0   7   -2.80    3.10
  -2   0   7    1.90    1.30
   1   0  -7   96.29    5.80
  -1   0   7   89.59    5.60
  -1   0   7   87.89    5.30
   0   0  -7 1139.79   59.59
   0   0  -7 1127.09   59.09
   0   0   7 1173.88   59.09
  -1   0  -7  654.53   34.20
  -1   0  -7  546.05   33.50
   1   0   7  735.03   33.20
  -2   0  -7   24.50    4.50
   2   0   7   26.00    1.60
  -3   0  -7   29.20    4.90
  -4   0  -7   17.80    5.10
   4   0   7   23.30    1.70
  -5   0  -7  102.19   10.90
   5   0   7   90.79    5.20
  -6   1   7   -5.80    6.90
   5  -1  -7   14.50   10.20
  -5   1   7    2.50    4.90
   4  -1  -7    7.10    8.40
  -4   1   7    5.00    3.70
   3  -1  -7  291.27   17.20
  -3   1   7  286.47   16.70
   2  -1  -7  186.28   11.10
  -2   1   7  178.38   10.80
  -2   1   7  185.88    9.90
   1  -1  -7  224.78   12.80
  -1   1   7  224.58   12.90
  -1   1   7  233.58   12.10
   0  -1  -7  460.55   25.90
   0  -1  -7  459.45   25.20
   0   1   7  512.35   24.70
  -1  -1  -7  296.57   15.80
  -1  -1  -7  290.87   16.90
   1   1   7  294.47   15.20
  -2  -1  -7  339.37   20.40
   2   1   7  374.36   18.60
  -3  -1  -7    5.70    3.70
   3   1   7    2.80    0.70
  -4  -1  -7   28.40    5.80
   4   1   7   23.70    1.90
   5   1   7  136.89    8.00
  -6   2   7   12.90    6.60
   5  -2  -7   -5.70    9.90
  -5   2   7    0.80    4.40
   4  -2  -7    3.20    6.10
  -4   2   7   -0.30    2.90
   3  -2  -7   44.20    7.30
  -3   2   7   50.99    5.20
   2  -2  -7   24.40    4.10
  -2   2   7   22.40    3.70
   1  -2  -7  268.07   14.50
  -1   2   7  236.38   13.30
   0  -2  -7  680.73   37.20
   0   2   7  695.73   35.40
  -1  -2  -7  108.19    7.40
  -1  -2  -7  104.49    8.30
   1   2   7  103.19    5.70
  -2  -2  -7   61.59    7.10
   2   2   7   68.19    3.90
  -3  -2  -7   44.10    6.40
   3   2   7   54.99    3.30
  -4  -2  -7   97.29    9.90
   4   2   7  122.29    6.40
  -5  -2  -7   19.30    6.60
   5   2   7   17.00    1.70
  -6   3   7    4.20    6.10
   5  -3  -7   24.70   10.60
  -5   3   7   23.70    5.70
   4  -3  -7  110.59   12.30
  -4   3   7  111.49    9.10
   3  -3  -7   60.29    8.00
  -3   3   7   47.70    5.60
   2  -3  -7    0.10    3.70
  -2   3   7   -2.00    2.50
   1  -3  -7  235.98   14.30
   0  -3  -7  211.38   13.70
   0  -3  -7  205.08   13.00
  -1  -3  -7   -0.10    4.00
  -1  -3  -7    3.70    3.80
   1   3   7    4.00    0.80
  -2  -3  -7    5.40    4.00
   2   3   7   -0.40    1.50
  -3  -3  -7   36.90    7.40
   3   3   7   39.50    2.80
  -4  -3  -7   56.79    8.90
   4   3   7   59.09    3.70
  -5  -3  -7   62.29   10.40
   5   3   7   57.89    3.60
   5  -4  -7   19.50   11.50
  -5   4   7   21.20    7.40
   4  -4  -7   12.70    7.00
  -4   4   7   14.90    4.60
   3  -4  -7   28.00    5.70
  -3   4   7   35.90    5.20
   2  -4  -7   26.20    5.10
  -2   4   7   22.10    4.20
   1  -4  -7   64.59    7.60
   0  -4  -7  193.98   13.50
   0  -4  -7  184.68   12.80
   0   4   7  178.48    9.70
  -1  -4  -7  300.77   19.30
   1   4   7  312.67   16.20
  -2  -4  -7  138.79   11.10
   2   4   7  130.49    7.40
  -3  -4  -7   44.70    8.20
   3   4   7   42.80    3.10
  -4  -4  -7   14.40    7.80
   5  -5  -7    1.50    8.40
  -5   5   7    6.60    5.40
   4  -5  -7    0.60    6.80
  -4   5   7    9.80    5.10
   3  -5  -7    1.20    5.40
  -3   5   7    7.20    3.90
   2  -5  -7   56.49    9.00
  -2   5   7   58.79    7.40
   1  -5  -7  431.06   25.50
   0  -5  -7   52.79    8.40
   0  -5  -7   48.90    9.80
  -1  -5  -7   27.10    6.00
   1   5   7   29.90    3.00
  -2  -5  -7  229.68   16.40
   2   5   7  232.78   12.50
  -3  -5  -7   38.50    7.40
   3   5   7   38.10    3.00
  -4  -5  -7   15.30    7.20
   4   5   7   19.30    2.20
   4  -6  -7    7.30    8.40
  -4   6   7    6.00    5.70
   3  -6  -7   51.09    8.60
  -3   6   7   44.50    8.00
   2  -6  -7  257.67   18.40
  -2   6   7  255.57   16.90
   1  -6  -7   12.30    6.40
  -1   6   7    7.70    4.60
   0  -6  -7   19.20    6.40
   0  -6  -7   14.10    7.00
  -1  -6  -7   84.39   10.20
   1   6   7   56.39    4.20
  -2  -6  -7   90.59   11.50
   2   6   7   95.49    5.80
  -3  -6  -7    2.40    6.60
   3   6   7    3.50    1.50
   4  -7  -7  -11.30    9.20
  -4   7   7    3.60    6.40
   3  -7  -7   78.69   15.40
  -3   7   7   74.79   10.50
   2  -7  -7   24.20    7.80
  -2   7   7   22.80    6.10
   1  -7  -7    3.20    6.70
  -1   7   7    5.00    5.30
   0  -7  -7   49.00    9.90
   0  -7  -7   42.20    9.30
  -1  -7  -7    0.90    7.30
   2   7   7  253.67   14.30
   2  -8  -7   53.59   10.50
  -2   8   7   38.60    7.30
   1  -8  -7    9.00   10.40
  -1   8   7    3.80    5.80
  -1  -8  -7   75.09   13.50
   0   9  -8  134.59   18.30
  -2  -8   8   35.40    4.90
   1   8  -8    6.00   13.30
  -1  -8   8    8.80    3.20
   0  -8   8   39.50    5.90
   2  -8   8    3.90    4.40
   3  -8   8   22.50    6.00
  -3  -7   8    2.50    2.40
   2   7  -8   42.00    8.70
  -2  -7   8   30.80    4.00
   1   7  -8   72.09   13.60
  -1  -7   8   59.19    5.20
   0  -7   8   38.70    4.70
   1  -7   8    4.50    3.50
   1  -7   8   10.90    3.70
   2  -7   8   37.20    6.70
   3  -7   8   40.20    8.00
   4  -7   8   19.90    6.10
  -4  -6   8    3.40    2.40
  -3  -6   8  124.39    7.80
   2   6  -8   62.29    9.70
  -2  -6   8   53.79    4.50
   1   6  -8  167.68   14.50
  -1  -6   8  157.58    9.50
   0  -6   8  280.27   15.60
   1  -6   8   16.60    3.10
   1  -6   8   15.30    3.40
   2  -6   8   14.60    3.90
   3  -6   8    6.90    4.40
   4  -6   8    6.00    6.10
  -4  -5   8  104.29    7.00
  -3  -5   8   58.99    4.60
   2   5  -8   16.20    4.80
  -2  -5   8   17.60    2.70
   1   5  -8  115.99   11.40
  -1  -5   8  119.69    7.30
   0  -5   8    1.40    1.90
   1  -5   8    8.10    2.80
   1  -5   8   10.10    2.40
   2  -5   8  410.56   22.90
   2  -5   8  433.96   23.70
  -3   5  -8    3.20    6.10
   3  -5   8    6.80    4.10
  -4   5  -8    1.90    8.00
   4  -5   8   -2.90    5.80
  -5   5  -8   22.60   10.70
  -4  -4   8   16.50    2.70
   3   4  -8   -2.20    4.30
  -3  -4   8    0.00    1.60
   2   4  -8  330.87   19.40
  -2  -4   8  346.37   18.20
   1   4  -8   -2.70    3.90
  -1  -4   8    0.40    1.30
   0  -4   8   83.79    5.40
  -1   4  -8   10.30    3.20
   1  -4   8    9.80    2.20
   1  -4   8    6.70    2.50
  -2   4  -8  674.23   35.80
   2  -4   8  649.83   34.90
  -3   4  -8   49.10    8.30
   3  -4   8   38.60    5.00
   3  -4   8   45.30    7.00
  -4   4  -8  122.59   12.80
   4  -4   8  123.59    9.30
   4  -4   8  121.69   13.20
  -5   4  -8   -4.80    7.90
  -5  -3   8  137.49   17.20
  -4  -3   8    2.70    1.90
  -4  -3   8    9.00    6.70
   3   3  -8   95.39    8.00
  -3  -3   8  103.59    6.30
   2   3  -8   76.89    6.30
  -2  -3   8   75.99    7.00
  -2  -3   8   71.39    5.00
   1   3  -8  188.08   11.60
  -1  -3   8  181.08   10.20
   0  -3   8    0.80    1.30
  -1   3  -8    9.60    2.40
   1  -3   8    8.30    2.10
   1  -3   8    9.10    1.90
  -2   3  -8  190.88   12.10
   2  -3   8  201.18   11.10
   2  -3   8  200.98   12.10
  -3   3  -8   30.80    5.30
   3  -3   8   20.50    4.50
  -4   3  -8   87.39   10.20
   4  -3   8   79.59    6.00
  -5   3  -8    8.30   10.30
  -5  -2   8   64.89   10.10
   4   2  -8   13.70    9.00
  -4  -2   8    1.50    2.00
  -4  -2   8    3.80    5.70
   3   2  -8   88.99    7.40
  -3  -2   8   84.29    7.80
  -3  -2   8   90.39    5.70
   2   2  -8   48.80    4.60
  -2  -2   8   48.70    3.60
  -2  -2   8   40.40    5.20
   1   2  -8   -0.50    2.30
  -1  -2   8    1.20    1.20
   0   2  -8  376.36   21.60
   0  -2   8  407.46   20.80
  -1   2  -8  406.26   22.90
   1  -2   8  457.85   22.80
  -2   2  -8   82.29    6.60
   2  -2   8   82.89    6.20
   2  -2   8   76.39    4.80
  -3   2  -8   19.70    4.50
  -4   2  -8   15.50    5.40
   4  -2   8   10.40    1.70
  -5   2  -8   67.09   11.50
   5  -2   8   73.09    5.30
  -6  -1   8    6.40    9.30
   5   1  -8   22.40    3.00
  -5  -1   8    2.70    5.60
   4   1  -8   81.19   14.20
  -4  -1   8   91.59    9.80
  -4  -1   8  108.19    6.70
   3   1  -8  248.78   14.60
  -3  -1   8  245.48   14.90
  -3  -1   8  245.58   13.50
   2   1  -8  193.88   11.30
  -2  -1   8  200.48   11.60
  -2  -1   8  205.98   11.00
   1   1  -8    8.10    2.00
  -1  -1   8    4.30    1.40
  -1  -1   8    4.30    1.30
   0   1  -8   11.70    2.50
   0  -1   8   10.30    1.70
  -1   1  -8  567.24   33.40
   1  -1   8  666.83   32.10
  -2   1  -8   10.80    3.30
  -2   1  -8   12.10    5.00
   2  -1   8   12.00    1.30
  -3   1  -8   82.19    8.30
   3  -1   8   84.09    4.70
  -4   1  -8   54.89    8.90
   4  -1   8   64.29    3.70
  -5   1  -8    5.10    6.50
  -5   0   8    2.40    5.40
   4   0  -8  154.78   14.00
  -4   0   8  157.88   11.20
   3   0  -8   29.00    5.90
  -3   0   8   23.90    3.00
  -3   0   8   30.70    4.70
   2   0  -8   18.50    3.10
  -2   0   8   16.50    2.20
  -2   0   8   18.80    3.20
   1   0  -8   21.00    3.30
  -1   0   8   23.90    2.40
  -1   0   8   20.60    2.80
   0   0  -8  111.39    6.90
   0   0   8   86.99    5.80
  -1   0  -8   33.70    4.40
  -1   0  -8   31.00    3.70
   1   0   8   33.40    2.10
  -2   0  -8   20.70    3.90
   2   0   8   22.80    1.50
  -3   0  -8  643.04   36.70
   3   0   8  667.63   33.80
  -4   0  -8   58.29    8.30
   4   0   8   52.69    3.20
   5   0   8    3.90    0.90
  -6   1   8   31.60    7.70
   5  -1  -8   19.30   11.00
  -5   1   8   19.90    5.70
   4  -1  -8  216.88   15.50
  -4   1   8  209.48   13.90
   3  -1  -8   -4.00    3.60
  -3   1   8    0.90    2.70
   2  -1  -8   24.60    4.80
  -2   1   8   29.60    2.60
  -2   1   8   31.80    3.80
   1  -1  -8  959.10   48.60
  -1   1   8  988.80   49.00
  -1   1   8  850.01   48.20
   0  -1  -8  660.53   35.40
  -1  -1  -8    6.80    3.30
   1   1   8    7.60    0.90
  -2  -1  -8   28.30    4.90
   2   1   8   25.80    1.70
  -3  -1  -8   17.00    4.60
   3   1   8   21.80    1.60
  -4  -1  -8  149.69   11.90
   4   1   8  145.99    7.90
  -5  -1  -8   31.90    7.60
   5   1   8   37.20    2.50
  -6   2   8   -5.80    6.30
   5  -2  -8   20.80    9.20
  -5   2   8    1.40    4.60
   4  -2  -8  142.89   13.90
  -4   2   8  141.89   10.40
   3  -2  -8   61.39   11.70
  -3   2   8   60.59    5.90
   2  -2  -8   10.20    3.60
  -2   2   8   11.60    2.80
   1  -2  -8  473.15   24.80
  -1   2   8  437.46   23.80
   0  -2  -8   58.39    5.50
   0  -2  -8   57.89    6.50
   0   2   8   55.29    3.20
  -1  -2  -8  469.65   26.30
   1   2   8  465.25   24.10
  -2  -2  -8    8.10    3.90
   2   2   8    6.20    0.90
  -3  -2  -8   74.59    8.20
   3   2   8   79.69    4.50
  -4  -2  -8   64.09    8.90
   4   2   8   73.59    4.20
  -5  -2  -8   43.10    8.20
   5   2   8   49.80    3.10
   5  -3  -8    5.50    9.50
  -5   3   8    9.00    4.80
   4  -3  -8   19.40    7.00
  -4   3   8   15.40    4.50
   3  -3  -8   -2.80    4.60
  -3   3   8    3.20    2.80
   2  -3  -8  304.07   17.90
  -2   3   8  294.27   17.60
   1  -3  -8  219.18   13.70
   0  -3  -8   44.20    7.10
   0  -3  -8   56.19    6.90
   0   3   8   42.80    2.60
  -1  -3  -8  112.69    9.90
  -1  -3  -8   79.99    8.20
   1   3   8   81.89    4.80
  -2  -3  -8  103.49    9.60
   2   3   8  105.29    5.90
  -3  -3  -8  144.49   11.90
   3   3   8  150.58    8.10
  -4  -3  -8   -1.90    5.70
   4   3   8   -0.30    0.90
  -5  -3  -8   35.10    8.10
   5   3   8   30.90    2.40
  -5   4   8   18.20    5.30
   4  -4  -8   32.80    7.50
  -4   4   8   28.30    5.40
   3  -4  -8   23.20    5.70
  -3   4   8   14.20    3.80
   2  -4  -8   70.49    8.40
  -2   4   8   71.29    7.50
   1  -4  -8  177.88   12.90
   0  -4  -8   26.20    7.80
   0  -4  -8   29.50    5.80
   0   4   8   18.10    1.60
  -1  -4  -8    0.40    4.20
   1   4   8    3.20    0.90
  -2  -4  -8   73.69    8.80
   2   4   8   68.99    4.20
  -3  -4  -8   10.30    5.30
   3   4   8   13.50    1.80
  -4  -4  -8   85.19   11.20
   4   4   8  110.79    6.00
   5  -5  -8   24.30   10.90
  -5   5   8   18.20    6.70
   4  -5  -8    4.20    7.70
  -4   5   8    1.80    5.00
   3  -5  -8    2.00    5.80
  -3   5   8    4.50    4.30
   2  -5  -8  139.49   11.90
  -2   5   8  130.89   10.80
   1  -5  -8   31.70    6.60
   0  -5  -8  260.67   18.70
   0  -5  -8  260.07   18.10
  -1  -5  -8  175.18   13.70
   1   5   8  174.28    9.50
  -2  -5  -8    3.80    5.20
   2   5   8    2.60    1.30
  -3  -5  -8   49.40    9.50
   3   5   8   59.19    3.80
  -4  -5  -8   35.50    8.70
   4   5   8   31.30    2.60
   4  -6  -8   23.70    9.30
  -4   6   8   12.10    5.80
   3  -6  -8  114.29   13.70
  -3   6   8  103.39   10.40
   2  -6  -8  112.99   13.30
  -2   6   8  108.79   10.40
   1  -6  -8   12.90    7.00
  -1   6   8   12.00    5.10
   0  -6  -8   68.29   11.60
   0  -6  -8   92.89   12.50
   1   6   8   64.29    5.00
  -2  -6  -8   17.60    6.80
   2   6   8   19.60    2.50
  -3  -6  -8    6.10    7.10
  -4   7   8   -1.50    6.20
   3  -7  -8  120.49   16.40
  -3   7   8   88.09   11.30
   2  -7  -8    4.00    7.60
  -2   7   8    6.60    5.50
   1  -7  -8    7.20    7.40
  -1   7   8    3.50    5.70
   0  -7  -8   31.20    8.90
  -2  -7  -8   -1.20    7.30
   2  -8  -8    0.70    8.70
  -2   8   8   13.50    6.50
   1  -8  -8   39.90   10.30
  -1   8   8   28.80    6.70
  -1  -8  -8  165.78   16.40
  -2  -8   9   23.90    3.60
   1   8  -9   95.09   17.70
  -1  -8   9  101.09    8.90
   0   8  -9   49.60   13.50
   0  -8   9   66.89    6.50
   2  -8   9   -0.60    4.40
  -3  -7   9   25.60    3.40
   2   7  -9   17.90    8.10
  -2  -7   9   22.10    3.20
   1   7  -9   67.49   10.10
  -1  -7   9   46.00    4.70
   0  -7   9   61.79    5.70
   1  -7   9    7.20    3.60
   1  -7   9    2.50    3.10
   2  -7   9   77.59    8.30
   3  -7   9   12.60    5.20
  -4  -6   9    5.20    2.40
  -3  -6   9    1.60    1.90
   2   6  -9  101.29   10.90
  -2  -6   9   99.59    6.50
   1   6  -9   57.89   10.20
  -1  -6   9   63.89    4.90
   0  -6   9    2.00    2.20
   1  -6   9   74.89    6.70
   1  -6   9   72.79    6.00
   2  -6   9   67.49    7.40
   2  -6   9   76.19    6.80
   3  -6   9   55.29    9.40
   4  -6   9   -0.90    6.20
  -4  -5   9  104.69    7.70
   3   5  -9  102.39   11.90
  -3  -5   9  114.69    7.00
   2   5  -9  185.18   12.70
  -2  -5   9  177.08   10.30
   1   5  -9  193.38   13.80
  -1  -5   9  188.28   10.90
   0  -5   9   29.80    3.50
   1  -5   9   35.50    4.60
   2  -5   9   21.00    3.60
  -3   5  -9   11.10    7.20
   3  -5   9    2.70    4.10
   3  -5   9    9.70    4.00
  -4   5  -9   -4.90    9.50
   4  -5   9    1.10    7.20
  -4  -4   9    7.40    2.40
   3   4  -9   42.80    6.80
  -3  -4   9   35.70    3.50
   2   4  -9   61.49    7.40
  -2  -4   9   53.19    4.30
   1   4  -9   -1.50    3.60
  -1  -4   9    8.00    1.70
   0  -4   9    2.70    1.70
   1  -4   9  830.42   43.50
   1  -4   9  834.52   44.00
   2  -4   9    7.80    2.60
   2  -4   9    0.40    2.70
  -3   4  -9   30.90    7.00
   3  -4   9   34.20    4.70
   3  -4   9   33.70    5.30
  -4   4  -9   38.20    8.20
   4  -4   9   25.90    4.70
   4  -4   9   15.50    7.40
  -5   4  -9    4.40    9.70
  -4  -3   9    3.00    2.10
   3   3  -9  246.68   15.30
  -3  -3   9  271.77   14.30
   2   3  -9    6.10    3.10
  -2  -3   9    6.40    1.60
   1   3  -9  108.19    8.10
  -1  -3   9  112.89    6.70
   0   3  -9  140.79   11.40
   0  -3   9  167.68    9.00
   1  -3   9  802.52   41.90
  -2   3  -9   21.50    4.10
   2  -3   9   23.00    2.80
   2  -3   9   24.40    4.50
  -3   3  -9  239.88   15.50
   3  -3   9  226.68   13.20
   3  -3   9  246.48   15.10
  -4   3  -9   27.10    7.00
   4  -3   9   33.90    4.20
  -5   3  -9   27.60    8.50
  -5  -2   9    6.20    8.10
  -4  -2   9  139.69    8.50
  -4  -2   9  127.49   12.90
   3   2  -9   18.20    3.70
   2   2  -9  221.58   12.40
  -2  -2   9  214.28   13.00
  -2  -2   9  216.58   12.00
   1   2  -9  102.99    7.10
  -1  -2   9   91.99    5.90
   0   2  -9   -1.80    2.70
   0  -2   9   -2.90    1.40
  -1   2  -9  191.78   10.80
  -1   2  -9  172.08   12.60
   1  -2   9  193.08   10.40
  -2   2  -9  148.99    9.50
   2  -2   9  128.99    7.80
  -3   2  -9   50.59    7.30
   3  -2   9   54.39    3.80
  -4   2  -9  101.29   10.90
   4  -2   9   99.49    6.10
  -5   2  -9    8.90    8.70
   5  -2   9    2.90    2.40
  -6  -1   9   25.70   10.80
  -5  -1   9   14.20    6.70
   4   1  -9   49.80    9.60
  -4  -1   9   37.10    4.30
  -4  -1   9   32.10    6.10
   3   1  -9   84.79    7.30
  -3  -1   9   76.39    5.30
  -3  -1   9   70.29    7.10
   2   1  -9   92.49    6.40
  -2  -1   9   92.99    5.70
  -2  -1   9   88.49    6.50
   1   1  -9  232.58   12.30
  -1  -1   9  212.58   11.70
  -1  -1   9  203.28   11.80
   0   1  -9  945.11   48.60
   0   1  -9  891.11   48.70
   0  -1   9  972.30   48.60
  -1   1  -9   -2.70    2.40
  -1   1  -9    5.40    2.90
   1  -1   9    2.90    1.20
  -2   1  -9   -3.20    3.90
  -2   1  -9    6.40    3.00
   2  -1   9    1.40    0.90
  -3   1  -9   83.09   13.10
   3  -1   9  113.09    6.00
  -4   1  -9   51.59    7.60
   4  -1   9   47.90    3.20
  -5   1  -9    4.80    8.10
   5  -1   9    1.00    1.70
  -6   0   9   12.30    8.30
   5   0  -9  102.69   17.30
  -5   0   9   81.49   10.60
   4   0  -9  128.49   12.60
  -4   0   9  120.69   10.10
   3   0  -9    8.60    3.90
  -3   0   9   11.20    2.10
  -3   0   9    4.90    3.00
   2   0  -9   -1.30    2.90
  -2   0   9    1.40    1.30
  -2   0   9    0.50    2.10
   1   0  -9   34.80    3.80
  -1   0   9   38.30    3.00
  -1   0   9   33.80    3.60
   0   0  -9  374.66   21.20
   0   0  -9  407.56   22.00
   0   0   9  423.16   21.20
  -1   0  -9   24.40    3.70
  -1   0  -9   19.20    4.10
   1   0   9   21.20    1.80
  -2   0  -9  321.57   19.60
  -2   0  -9  366.86   20.70
   2   0   9  400.86   18.90
  -3   0  -9   18.70    5.00
   3   0   9   19.20    1.50
  -4   0  -9   -0.40    5.10
   4   0   9   -0.40    0.70
  -5   0  -9   29.20    7.30
   5   0   9   32.30    2.40
  -6   1   9   -5.40    7.60
   5  -1  -9  141.89   19.40
  -5   1   9  110.69   11.10
   4  -1  -9    9.40    6.40
  -4   1   9   -3.30    3.50
   3  -1  -9   -8.00    3.70
  -3   1   9   -0.70    2.80
   2  -1  -9   98.39    7.60
  -2   1   9   95.99    7.10
  -2   1   9  103.39    5.90
   1  -1  -9   59.99    5.60
  -1   1   9   61.59    5.30
  -1   1   9   66.09    4.30
   0  -1  -9   14.90    3.00
   0  -1  -9   11.00    3.60
   0   1   9   12.50    1.90
  -1  -1  -9   11.20    2.90
  -1  -1  -9   11.40    3.60
   1   1   9   11.30    1.00
  -2  -1  -9  684.63   38.20
   2   1   9  719.93   36.20
  -3  -1  -9   85.59    8.70
   3   1   9  106.99    5.50
  -4  -1  -9    4.10    4.60
   4   1   9    1.70    0.80
  -5  -1  -9   14.40    6.90
   5   1   9   15.90    1.60
  -6   2   9   12.70    7.30
   5  -2  -9   88.49   16.90
  -5   2   9   63.99    9.10
   4  -2  -9    7.50    6.70
  -4   2   9    0.80    3.80
   3  -2  -9    2.60    4.40
  -3   2   9    0.20    3.00
   2  -2  -9  622.34   32.90
  -2   2   9  593.24   32.90
   1  -2  -9  306.87   17.50
   0  -2  -9   93.69    8.30
   0  -2  -9   86.39    7.30
   0   2   9   97.89    5.20
  -1  -2  -9   40.40    6.60
  -1  -2  -9   54.59    6.30
   1   2   9   49.10    2.90
  -2  -2  -9   49.10    8.90
  -3  -2  -9  141.09   11.40
   3   2   9  145.49    7.80
  -4  -2  -9   88.09   10.40
   4   2   9   98.69    5.40
  -5  -2  -9   46.60    8.40
   5   2   9   52.69    3.20
   5  -3  -9   42.20   10.90
  -5   3   9   58.69    8.50
   4  -3  -9   16.90    7.30
  -4   3   9   11.20    4.50
   3  -3  -9   12.30    5.10
  -3   3   9    5.10    3.00
   2  -3  -9  344.97   20.40
  -2   3   9  291.27   18.60
   1  -3  -9    3.30    3.80
   0  -3  -9  378.76   22.70
   0  -3  -9  385.06   21.80
   0   3   9  379.56   19.80
  -1  -3  -9   10.50    4.70
   1   3   9   14.10    1.40
  -2  -3  -9  108.69   10.10
   2   3   9  112.99    6.20
  -3  -3  -9   41.60    7.90
   3   3   9   32.10    2.40
  -4  -3  -9  141.89   12.60
   4   3   9  132.39    7.40
   5  -4  -9   14.30    9.50
  -5   4   9   11.30    5.60
   4  -4  -9    4.70    6.60
  -4   4   9   -4.60    4.40
   3  -4  -9  166.58   13.10
  -3   4   9  164.68   11.90
   2  -4  -9   69.59    8.70
  -2   4   9   66.09    7.50
   1  -4  -9   13.60    5.60
   0  -4  -9   82.79   10.60
   0  -4  -9   98.19   10.70
  -1  -4  -9  127.59   11.00
   1   4   9  130.69    7.10
  -2  -4  -9  105.19   10.40
   2   4   9  113.49    6.20
  -3  -4  -9   30.50    6.70
   3   4   9   23.60    2.10
  -4  -4  -9   29.40    6.70
   4   4   9   30.60    2.40
   5  -5  -9    8.70   10.30
  -5   5   9    6.20    6.10
   4  -5  -9   39.40    9.50
  -4   5   9   22.30    6.00
  -3   5   9   24.80    5.10
   2  -5  -9  121.69   11.70
  -2   5   9  106.49   10.10
   1  -5  -9   85.99   11.50
   0  -5  -9   -2.60    5.90
   0  -5  -9  -13.90    8.80
  -1  -5  -9   44.10    8.80
   1   5   9   47.20    3.20
  -2  -5  -9    7.60    5.80
   4  -6  -9    5.10    9.50
  -4   6   9    4.30    5.70
   3  -6  -9  112.89   15.30
  -3   6   9  122.89   11.20
   2  -6  -9    0.30    7.40
  -2   6   9    3.90    5.10
   1  -6  -9  172.58   15.90
  -1   6   9  156.78   12.90
   0  -6  -9  151.38   14.40
   0  -6  -9  153.08   15.50
  -1  -6  -9    4.40    6.70
   1   6   9    5.40    2.30
  -2  -6  -9   83.99   11.90
   2   6   9   59.89    4.20
  -3  -6  -9   53.39   10.70
   3   6   9   62.49    4.00
   3  -7  -9    3.60    9.10
  -3   7   9    1.10    6.00
   2  -7  -9    9.50    9.20
  -2   7   9    7.00   11.00
   1  -7  -9   95.29   16.10
  -1   7   9   81.89   10.50
   0  -7  -9   29.30    8.00
  -1  -7  -9    0.40    7.20
  -2  -7  -9   19.90    8.50
   2  -8  -9    7.50    9.40
  -2   8   9    3.50    6.50
   1  -8  -9  -10.30   10.60
  -1   8   9   13.00    6.40
  -2  -8  10  107.79    7.60
   1   8 -10   19.00    9.00
  -1  -8  10    5.30    3.10
   0  -8  10   39.40    5.90
  -3  -7  10   43.80    4.50
   2   7 -10   89.59   13.60
   1   7 -10   92.29   12.40
  -1  -7  10   94.89    6.70
   0   7 -10   32.70    8.20
   0  -7  10   14.60    3.20
   1  -7  10   23.20    4.20
   2  -7  10   50.59    7.10
   3  -7  10    0.60    4.60
  -4  -6  10   18.40    3.00
  -3  -6  10   40.70    4.10
   2   6 -10   42.60    7.00
  -2  -6  10   38.90    3.90
   1   6 -10   51.49    9.20
  -1  -6  10   44.00    4.30
   0   6 -10   39.70    7.70
   0  -6  10   26.10    4.00
   1  -6  10   98.19    7.10
   2  -6  10    7.60    3.90
   2  -6  10    3.10    3.50
   3  -6  10   14.20    4.70
   4  -6  10    1.40    6.10
  -4  -5  10    7.80    2.40
   3   5 -10   75.79    9.60
  -3  -5  10   90.89    5.90
   2   5 -10   46.10    7.60
  -2  -5  10   47.40    3.90
   1   5 -10   69.59    8.50
  -1  -5  10   77.99    5.30
   0   5 -10   88.19   10.50
   0  -5  10   90.19    6.10
   1  -5  10  100.19    6.80
   2  -5  10   61.19    5.70
   2  -5  10   60.39    6.50
   3  -5  10    4.30    3.90
   3  -5  10    6.10    4.30
  -4  -4  10  121.89    7.70
   3   4 -10  162.78   11.70
  -3  -4  10  187.98   10.20
   2   4 -10   49.60    6.60
  -2  -4  10   50.59    4.10
  -1  -4  10    6.10    1.70
   0   4 -10  109.69   12.00
   0  -4  10  121.89    7.30
   1  -4  10    0.90    2.10
   2  -4  10   -0.10    2.70
   2  -4  10   -2.90    2.50
  -3   4 -10   37.20    7.60
   3  -4  10   33.40    5.30
   3  -4  10   28.00    4.10
  -4   4 -10   47.80    9.60
   4  -4  10   66.89    7.00
  -5   4 -10    6.20   11.50
  -4  -3  10   63.19    5.10
   3   3 -10    2.40    3.60
  -3  -3  10    1.90    1.70
   2   3 -10    3.60    2.90
   1   3 -10   17.30    3.40
  -1  -3  10   20.70    2.60
   0   3 -10  983.40   53.49
   0  -3  10 1047.50   52.79
  -1   3 -10   32.40    6.50
   1  -3  10   29.60    3.50
  -2   3 -10  155.08   10.60
   2  -3  10  149.79    9.00
   3  -3  10   23.60    3.50
  -4   3 -10   43.20    8.20
   4  -3  10   29.60    4.30
  -5   3 -10   30.00    9.90
   5  -3  10   15.30    4.60
  -4  -2  10  111.59   12.40
  -4  -2  10  104.19    7.20
   3   2 -10    2.30    4.30
  -3  -2  10    0.70    1.70
   2   2 -10   24.80    4.20
  -2  -2  10   21.30    2.70
   1   2 -10  262.87   14.30
  -1  -2  10  239.08   13.70
   0   2 -10  745.23   40.20
   0  -2  10  779.82   39.80
  -1   2 -10    2.50    2.80
  -1   2 -10   -1.80    4.10
   1  -2  10   -3.70    1.40
  -2   2 -10  246.48   14.90
  -2   2 -10  262.57   16.60
   2  -2  10  233.78   13.40
   3  -2  10   29.30    2.80
  -4   2 -10   53.39    9.60
   4  -2  10   43.80    3.80
  -5   2 -10   36.30    9.30
   5  -2  10   35.00    4.30
  -5  -1  10   72.29   12.00
   4   1 -10   19.10    6.30
  -4  -1  10    9.40    2.70
  -4  -1  10    2.50    5.30
   3   1 -10   82.39    7.80
  -3  -1  10   79.89    7.60
  -3  -1  10   81.69    5.50
   2   1 -10  170.48   10.20
  -2  -1  10  175.28   10.60
  -2  -1  10  165.88    9.60
   1   1 -10    3.60    2.20
  -1  -1  10    1.80    1.60
   0   1 -10   84.09    6.60
   0   1 -10   94.19    6.80
   0  -1  10   85.79    5.60
  -1   1 -10  271.47   15.40
  -1   1 -10  276.17   15.60
   1  -1  10  262.57   14.50
  -2   1 -10  102.29    8.70
  -2   1 -10   92.59    7.90
   2  -1  10   86.99    5.30
  -3   1 -10  230.48   15.10
   3  -1  10  221.58   12.00
  -4   1 -10    2.30    5.40
   4  -1  10    1.60    1.20
  -5   1 -10   28.50    8.50
   5  -1  10   24.80    2.90
  -6   0  10   25.70    9.50
   5   0 -10   12.00   11.30
  -5   0  10   13.40    6.30
   4   0 -10   28.40    6.90
  -4   0  10   25.30    5.30
   3   0 -10  132.59    9.80
  -3   0  10  104.09    8.80
   2   0 -10  100.79    7.60
  -2   0  10  106.59    7.40
  -2   0  10  101.09    6.30
   1   0 -10  779.32   41.90
  -1   0  10  836.42   41.90
  -1   0  10  798.72   42.30
   0   0 -10   19.10    3.80
   0   0 -10   17.20    3.30
   0   0  10   18.40    2.30
  -1   0 -10   -0.30    3.20
  -1   0 -10    5.00    2.30
   1   0  10    3.10    1.10
  -2   0 -10  230.78   14.70
   2   0  10  245.88   12.60
  -3   0 -10   10.30    4.50
   3   0  10   11.20    1.20
  -4   0 -10    1.60    5.00
   4   0  10   -0.70    0.70
  -5   0 -10   82.59   11.10
   5   0  10   77.09    4.70
  -6   1  10   34.70    9.70
   5  -1 -10   42.50   11.30
  -5   1  10   24.10    6.20
   4  -1 -10    8.40    6.70
  -4   1  10    4.60    4.60
   3  -1 -10    2.70    4.20
  -3   1  10   -1.30    3.00
   2  -1 -10   96.59    7.80
  -2   1  10   88.69    7.00
  -2   1  10   97.39    5.90
   1  -1 -10  121.39    8.60
  -1   1  10  141.99    7.80
  -1   1  10  133.29    8.90
   0  -1 -10    8.00    3.10
   0  -1 -10    7.40    3.80
   0   1  10    4.30    1.50
  -1  -1 -10  735.43   40.60
  -1  -1 -10  719.23   39.50
   1   1  10  802.82   38.80
  -2  -1 -10    9.90    4.10
  -3  -1 -10    4.80    4.20
   3   1  10    2.20    0.70
  -4  -1 -10   96.99   10.30
   4   1  10  105.79    5.70
  -5  -1 -10   42.70    8.60
   5   1  10   21.90    1.90
   5  -2 -10    7.80   10.70
  -5   2  10   12.50    5.70
   4  -2 -10    4.60    6.80
  -4   2  10    1.50    4.00
   3  -2 -10  152.78   11.60
  -3   2  10  135.89   10.30
   2  -2 -10   27.90    6.00
  -2   2  10   30.50    5.10
   1  -2 -10    2.90    3.60
  -1   2  10   -0.40    2.20
   0  -2 -10   61.09    7.80
   0  -2 -10   58.39    6.60
   0   2  10   62.69    3.90
  -1  -2 -10  536.65   30.30
   1   2  10  544.35   27.90
  -2  -2 -10  172.28   12.50
   2   2  10  174.18    9.20
  -3  -2 -10   40.80    7.80
   3   2  10   38.00    2.50
  -4  -2 -10   14.90    6.30
   4   2  10   19.90    1.70
  -5  -2 -10   34.10    8.60
   5   2  10   29.10    2.20
   5  -3 -10  -14.20    9.10
  -5   3  10   -0.10    8.10
   4  -3 -10    1.60    7.20
  -4   3  10    0.20    4.50
   3  -3 -10  329.37   20.00
  -3   3  10  313.27   19.00
   2  -3 -10   63.09    7.90
  -2   3  10   61.49    7.40
   1  -3 -10  165.98   11.90
   0  -3 -10   53.59    8.20
   0  -3 -10   71.29    8.50
   0   3  10   60.29    3.80
  -1  -3 -10   87.49    9.20
   1   3  10   77.79    4.50
  -2  -3 -10   63.49    8.70
   2   3  10   79.69    4.40
  -3  -3 -10  182.68   14.10
   3   3  10  191.68   10.10
  -4  -3 -10   95.59   11.10
   4   3  10   98.59    5.50
   5  -4 -10    5.30   10.10
  -5   4  10    5.80    5.50
  -4   4  10   44.30    6.90
   3  -4 -10   76.69   10.70
  -3   4  10   90.89    8.60
   2  -4 -10   10.00    5.20
  -2   4  10    5.20    4.00
   1  -4 -10  260.37   18.00
   0  -4 -10   28.00    6.80
   0  -4 -10   26.00    7.30
  -1  -4 -10   95.69   10.00
   1   4  10   95.29    5.40
  -2  -4 -10   -2.60    5.00
   2   4  10    0.20    0.90
  -3  -4 -10  196.18   15.30
   3   4  10  204.28   10.80
  -4  -4 -10   31.30    7.50
   4   4  10   32.90    2.50
   5  -5 -10  -11.50   10.70
  -5   5  10   19.00    6.90
  -4   5  10   60.49    9.80
   3  -5 -10   32.30    7.70
  -3   5  10   32.60    5.90
   2  -5 -10   -3.40    6.20
  -2   5  10   -4.90    4.40
   1  -5 -10   61.09   12.20
   0  -5 -10  164.18   16.20
   0  -5 -10  127.99   13.20
  -1  -5 -10   30.50    6.90
   1   5  10   29.10    2.50
  -2  -5 -10   63.49    9.60
   2   5  10   51.89    3.50
  -3  -5 -10   16.90    7.20
   3   5  10   16.70    1.90
   4  -6 -10   25.60    9.50
  -4   6  10   25.30    7.10
   3  -6 -10   45.00    9.30
  -3   6  10   24.30    6.40
   2  -6 -10   98.49   15.00
  -2   6  10   93.79   10.60
   1  -6 -10   19.60    8.40
  -1   6  10    1.40    5.20
   0  -6 -10    8.90    6.70
   0  -6 -10   30.90   10.30
  -1  -6 -10   -2.00    6.90
  -2  -6 -10  111.09   12.80
   2   6  10  106.59    6.30
  -3  -6 -10   65.59   11.90
   3   6  10   57.89    3.80
   3  -7 -10   25.90   10.10
  -3   7  10   16.80    6.50
   2  -7 -10  138.69   21.20
  -2   7  10   80.99   11.10
   1  -7 -10  103.89   16.70
  -1   7  10   76.09   12.50
  -1  -7 -10   38.50    8.90
  -2  -7 -10   45.20    9.30
  -1   8  10   11.10    6.60
   1   8 -11   16.40    8.20
  -1  -8  11    8.60    3.10
   0   8 -11   76.59   13.90
   0  -8  11   67.89    8.90
  -1   8 -11   60.29   13.50
  -3  -7  11   63.69    5.30
  -2  -7  11    1.90    2.20
   1   7 -11   76.99   10.90
  -1  -7  11   73.89    5.90
   0   7 -11    7.60    7.80
   0  -7  11    4.50    2.90
   1  -7  11   55.89    6.20
  -4  -6  11   44.00    4.40
  -3  -6  11   87.59    6.60
   2   6 -11   59.69    9.70
  -2  -6  11   71.59    5.20
   1   6 -11   37.50    6.40
  -1  -6  11   51.09    4.40
   0   6 -11   60.29   11.00
   0  -6  11   68.19    5.30
   1  -6  11   29.20    4.50
   2  -6  11   13.10    4.00
  -4  -5  11   52.09    4.60
   3   5 -11   12.70    5.30
  -3  -5  11   17.70    2.60
   2   5 -11   15.00    4.70
  -2  -5  11   16.10    2.60
   1   5 -11   70.99    8.10
  -1  -5  11   71.39    5.20
   0   5 -11   77.59    9.80
   0  -5  11   85.59    5.80
   1  -5  11   -0.30    2.30
   2  -5  11   43.60    5.20
   3  -5  11   55.49    6.80
  -5  -4  11   36.00    4.70
  -4  -4  11   55.79    4.80
   3   4 -11   24.80    4.70
  -3  -4  11   23.30    3.20
   2   4 -11  173.18   11.20
  -2  -4  11  175.18   10.00
   1   4 -11   62.39    7.00
  -1  -4  11   69.09    4.90
   0   4 -11  119.99   10.40
   0  -4  11  137.39    8.00
  -1   4 -11   54.39    7.50
   1  -4  11   46.30    4.50
   2  -4  11   30.50    3.90
   3  -4  11   96.89    7.30
   4  -4  11   14.20    4.40
  -5  -3  11   71.29    6.20
   4   3 -11  137.69   14.80
  -4  -3  11  130.49    8.30
   3   3 -11    0.90    3.80
  -3  -3  11    1.70    1.70
  -2  -3  11   -1.30    1.60
   1   3 -11  275.77   16.30
  -1  -3  11  289.07   15.40
   0   3 -11   29.90    5.90
   0  -3  11   24.50    3.20
  -1   3 -11    6.40    5.60
   1  -3  11    2.40    2.10
  -2   3 -11  108.09   10.70
   2  -3  11   83.59    6.10
  -3   3 -11   39.80    7.50
   3  -3  11   37.40    4.20
  -4   3 -11   -4.60    7.90
   4  -3  11    7.20    2.90
  -5   3 -11   37.10   11.30
  -5  -2  11   68.49    6.70
   4   2 -11   68.39   13.30
   3   2 -11   30.90    6.40
  -3  -2  11   25.60    3.30
   2   2 -11  160.38    9.70
  -2  -2  11  160.88    9.20
   1   2 -11  806.62   42.50
  -1  -2  11  815.62   42.30
   0   2 -11   94.49    7.10
   0  -2  11   87.99    6.00
  -1   2 -11  405.96   22.50
   1  -2  11  401.06   21.60
  -2   2 -11   -1.50    4.00
  -2   2 -11    0.50    5.40
   2  -2  11   -1.60    1.50
  -3   2 -11  104.59   10.10
   3  -2  11   99.59    6.20
  -4   2 -11    5.50    6.90
   4  -2  11   -0.30    1.80
  -5   2 -11   10.60    8.60
   5  -2  11   29.20    4.20
  -5  -1  11   14.50    8.00
   4   1 -11   16.80    6.40
  -4  -1  11    6.60    5.90
  -4  -1  11    8.10    2.90
   3   1 -11   15.40    4.40
  -3  -1  11   11.60    2.40
   2   1 -11  144.89    9.10
  -2  -1  11  144.79    9.60
  -2  -1  11  142.89    8.40
   1   1 -11  636.74   33.30
  -1  -1  11  629.24   33.20
   0   1 -11   86.29    6.40
   0  -1  11   84.19    5.70
  -1   1 -11  118.69    8.50
  -1   1 -11  131.49    8.70
   1  -1  11  112.39    7.10
  -2   1 -11   10.30    4.00
  -2   1 -11   -0.20    4.30
   2  -1  11    2.30    1.30
  -3   1 -11   15.30    5.30
   3  -1  11   13.50    2.00
  -4   1 -11   61.09    9.90
   4  -1  11   68.99    4.40
  -5   1 -11   75.69   12.00
   5  -1  11   54.39    4.40
   5   0 -11    5.00   12.30
  -5   0  11   12.80    6.80
   4   0 -11   -5.00    5.90
  -4   0  11   -0.50    3.40
  -4   0  11   -3.70    4.70
   3   0 -11   93.89    9.00
  -3   0  11   95.69    8.20
   2   0 -11   16.10    3.90
  -2   0  11   17.80    3.50
  -2   0  11   18.50    2.50
   1   0 -11   -1.70    2.30
  -1   0  11   -0.70    2.60
  -1   0  11   -0.70    1.80
   0   0 -11  199.48   11.40
   0   0 -11  201.58   12.90
   0   0  11  205.88   11.30
  -1   0 -11  259.97   14.20
  -1   0 -11  254.87   15.60
   1   0  11  251.27   13.70
  -2   0 -11  201.58   13.50
   2   0  11  205.08   10.90
  -3   0 -11   19.80    5.20
   3   0  11   18.00    1.70
  -4   0 -11   87.19   10.10
   4   0  11   92.19    5.20
  -5   0 -11   24.50    8.40
   5   0  11   21.50    2.50
   5  -1 -11    3.40   10.90
  -5   1  11   -2.60    5.80
   4  -1 -11   56.89    8.50
  -4   1  11   52.49    8.00
   3  -1 -11   72.19    8.30
  -3   1  11   83.09    7.50
   2  -1 -11  358.36   20.10
  -2   1  11  359.66   18.90
  -2   1  11  337.97   19.90
   1  -1 -11   26.10    3.90
  -1   1  11   37.00    5.50
  -1   1  11   31.10    3.70
   0  -1 -11   85.59    8.50
   0  -1 -11   81.09    6.90
   0   1  11   76.29    5.20
  -1  -1 -11  179.28   10.90
  -1  -1 -11  159.18   11.90
   1   1  11  161.38    9.00
  -2  -1 -11    4.00    4.70
   2   1  11    1.30    0.70
  -3  -1 -11    6.40    5.40
   3   1  11   11.40    1.30
  -4  -1 -11   78.19   11.00
   4   1  11   77.59    4.40
  -5  -1 -11   -2.00    7.40
   5  -2 -11   11.90   11.20
  -5   2  11   -1.40    5.80
   4  -2 -11    5.80    7.40
  -4   2  11    3.50    4.60
   3  -2 -11   67.69    9.00
  -3   2  11   67.19    7.40
  -2   2  11   41.80    5.90
   1  -2 -11    8.10    3.90
  -1   2  11    8.00    2.60
   0  -2 -11  676.93   37.80
   0  -2 -11  692.73   36.80
   0   2  11  688.13   35.70
  -1  -2 -11   52.29    7.90
  -1  -2 -11   29.10    5.30
   1   2  11   29.00    2.20
  -2  -2 -11   19.50    5.50
   2   2  11   17.60    1.60
  -3  -2 -11  145.59   12.80
   3   2  11  171.68    8.80
  -4  -2 -11   31.50    7.50
   4   2  11   35.10    2.40
   5  -3 -11  -12.40   10.40
  -5   3  11    0.70    5.80
   4  -3 -11   92.79   13.40
  -4   3  11  104.99   10.00
   3  -3 -11    6.00    5.60
  -3   3  11    8.80    4.00
   2  -3 -11   16.70    4.90
  -2   3  11   19.70    5.00
   1  -3 -11   42.60    8.30
   0  -3 -11  347.37   21.50
   0  -3 -11  375.96   20.90
   0   3  11  311.27   18.40
  -1  -3 -11  154.98   12.10
   1   3  11  142.19    7.90
  -2  -3 -11  111.89   11.10
   2   3  11  121.39    6.50
  -3  -3 -11   11.60    5.50
   3   3  11   17.30    1.70
  -4  -3 -11   22.80    7.30
   4   3  11   29.10    2.20
   5  -4 -11    3.90   11.60
  -5   4  11    5.70    5.80
   4  -4 -11  152.88   16.10
  -4   4  11  159.48   13.20
   3  -4 -11   -3.20    6.30
  -3   4  11    1.70    4.60
   2  -4 -11  127.09   12.00
  -2   4  11  124.59   10.80
   1  -4 -11   65.69   10.90
   0  -4 -11  117.09   13.80
   0  -4 -11  111.39   12.00
  -1  -4 -11   18.30    6.00
   1   4  11   10.90    1.60
  -2  -4 -11  260.97   17.90
   2   4  11  265.27   13.90
  -3  -4 -11   81.49   10.70
   3   4  11   95.19    5.30
  -4  -4 -11   10.90    7.20
   4   4  11    8.00    1.30
   4  -5 -11   25.50    9.80
  -4   5  11   17.30    6.60
   3  -5 -11    9.60    7.50
  -3   5  11   11.10    5.30
   2  -5 -11  122.79   13.60
  -2   5  11  111.79   11.10
   1  -5 -11   52.79    9.50
   0  -5 -11   80.99   15.30
   0  -5 -11   49.00    8.60
  -1  -5 -11   24.30    7.00
   1   5  11   15.20    2.10
  -2  -5 -11  168.68   14.00
   2   5  11  153.58    8.60
  -3  -5 -11   17.30    7.00
   3   5  11   10.30    1.50
   4  -6 -11   26.40    9.40
  -4   6  11   14.10    7.00
   3  -6 -11   26.70   10.00
  -3   6  11   18.60    6.70
   2  -6 -11   18.40    9.70
  -2   6  11   21.90    6.90
   1  -6 -11  114.49   16.70
  -1   6  11   85.59   10.80
   0  -6 -11   -4.90    7.10
  -1  -6 -11   85.79   12.30
  -2  -6 -11   10.80    7.70
   3  -7 -11   97.39   18.30
  -3   7  11   56.19    9.10
   2  -7 -11   -0.40    9.60
  -2   7  11    6.30    6.60
   1  -7 -11   -0.60   10.00
  -1   7  11   -0.60    6.30
  -1  -7 -11  133.69   14.40
   1   8 -12   -8.40    7.90
  -1  -8  12    7.60    3.70
   0   8 -12  146.69   14.80
  -1   8 -12   29.40    9.20
  -3  -7  12    4.90    2.40
  -2  -7  12    6.30    2.70
   1   7 -12   52.99   10.10
  -1  -7  12   46.10    4.70
   0   7 -12   40.50    8.10
   0  -7  12   33.40    4.80
  -1   7 -12  126.69   14.00
   1  -7  12  119.09    8.70
   3   6 -12   -2.30    7.80
  -3  -6  12    0.90    2.10
   2   6 -12   84.29   10.00
  -2  -6  12  103.59    6.50
   1   6 -12    2.40    5.00
  -1  -6  12    3.80    2.40
   0   6 -12  121.39   11.80
   0  -6  12  126.89    8.10
  -1   6 -12   56.29   11.30
   1  -6  12   50.49    5.40
   2  -6  12  131.19    9.40
  -4  -5  12   62.89    5.20
   3   5 -12   43.90    8.60
  -3  -5  12   45.00    4.20
   2   5 -12   62.89    7.90
  -2  -5  12   69.79    5.10
   1   5 -12  104.29    9.30
  -1  -5  12  111.29    7.00
   0   5 -12    4.80    5.00
   0  -5  12    4.60    2.10
  -1   5 -12   -5.70    6.50
   1  -5  12    0.50    2.60
   2  -5  12   18.50    3.50
  -3   5 -12    5.50   12.20
   3  -5  12   14.30    4.30
  -4  -4  12   12.50    2.80
   3   4 -12    2.60    4.10
  -3  -4  12    0.20    1.70
   2   4 -12   77.89    7.50
  -2  -4  12   78.19    5.50
   1   4 -12   59.09    6.40
  -1  -4  12   55.99    4.50
   0   4 -12    2.50    3.50
   0  -4  12    1.30    2.10
  -1   4 -12   93.09   10.50
   1  -4  12   96.89    6.60
  -2   4 -12  114.99   13.40
   2  -4  12  107.69    7.60
  -3   4 -12  140.99   19.00
   4  -4  12    7.00    4.20
  -5  -3  12   35.30    4.60
   4   3 -12   10.30    7.80
  -4  -3  12    6.10    2.70
   3   3 -12  159.18   11.40
  -3  -3  12  155.38    9.30
   2   3 -12   61.79    6.40
  -2  -3  12   64.39    4.70
   1   3 -12  109.09    9.40
  -1  -3  12  130.89    7.70
   0   3 -12   32.50    5.90
   0  -3  12   32.20    3.50
   1  -3  12   52.29    4.60
  -2   3 -12  138.59   12.60
   2  -3  12   99.39    7.10
  -3   3 -12   -2.80   11.40
  -3   3 -12   -0.80    7.10
   3  -3  12    0.60    2.20
  -4   3 -12    9.40    9.40
   4  -3  12    8.50    3.00
  -5  -2  12   35.20    4.90
   4   2 -12   19.20    7.70
   3   2 -12    1.30    3.90
  -3  -2  12    4.40    1.90
   2   2 -12  274.67   18.20
  -2  -2  12  358.56   17.30
   1   2 -12  160.28    9.50
  -1  -2  12  138.19    8.80
   0   2 -12   48.40    5.70
   0  -2  12   36.10    3.90
  -1   2 -12  108.19    8.70
   1  -2  12  109.29    6.90
  -2   2 -12   23.50    7.40
  -2   2 -12   39.10    8.70
   2  -2  12   19.90    2.60
  -3   2 -12    1.70    6.10
   3  -2  12   -0.50    1.70
  -4   2 -12   75.49   11.80
   4  -2  12   60.79    4.90
  -5   2 -12   73.39   12.40
   5  -2  12   80.09    6.30
   5   1 -12   33.90   16.70
   4   1 -12   25.10    7.70
  -4  -1  12   24.20    3.90
   3   1 -12  275.07   16.80
  -3  -1  12  288.37   17.10
   2   1 -12  416.26   22.00
  -2  -1  12  411.26   21.60
  -2  -1  12  375.76   23.70
   1   1 -12  186.78   10.80
  -1  -1  12  184.28   10.60
   0   1 -12  555.34   29.50
   0  -1  12  556.94   29.50
  -1   1 -12   19.10    5.40
  -1   1 -12   16.00    3.30
   1  -1  12   13.00    2.30
  -2   1 -12  233.78   14.50
   2  -1  12  216.18   12.20
  -3   1 -12   29.40    6.30
   3  -1  12   19.50    2.50
  -4   1 -12   23.30    7.10
   4  -1  12   19.00    2.60
  -5   1 -12   24.70    8.90
   5  -1  12   27.90    3.50
   5   0 -12   14.80   12.40
  -5   0  12   28.30    8.70
   4   0 -12   70.49   11.40
  -4   0  12   59.19    6.50
  -4   0  12   64.09    9.40
   3   0 -12   30.60    5.20
  -3   0  12   30.70    5.20
   2   0 -12  379.36   20.50
  -2   0  12  357.96   19.60
  -2   0  12  354.56   20.50
   1   0 -12  219.88   13.30
  -1   0  12  253.17   13.90
  -1   0  12  231.78   13.10
   0   0 -12   35.60   10.60
   0   0 -12   22.50    3.90
   0   0  12   24.60    3.30
  -1   0 -12   20.40    4.20
  -1   0 -12   11.20    4.80
   1   0  12   16.10    2.20
  -2   0 -12   17.40    5.10
   2   0  12   15.90    2.00
  -3   0 -12   99.89   10.90
   3   0  12  113.69    6.20
  -4   0 -12   98.09   11.60
   4   0  12  111.39    6.20
  -5   0 -12    8.80    9.10
   5   0  12    6.70    1.80
   5  -1 -12   23.20   12.30
  -5   1  12    5.10    6.60
   4  -1 -12   21.20    7.50
  -4   1  12   17.40    5.30
   3  -1 -12   34.40    7.50
  -3   1  12   33.90    5.40
  -2   1  12   60.89    5.00
  -2   1  12   60.59    6.40
   1  -1 -12   78.99    7.50
  -1   1  12  101.69    8.20
  -1   1  12   90.29    6.20
   0  -1 -12  486.65   25.20
   0  -1 -12  439.86   26.30
   0   1  12  456.65   24.50
  -1  -1 -12   52.19    7.70
   1   1  12   51.39    3.60
  -2  -1 -12   23.20    5.90
   2   1  12   23.10    2.00
  -3  -1 -12  165.48   14.00
   3   1  12  194.38    9.90
  -4  -1 -12   -8.50    6.40
   4   1  12    0.10    1.00
   5  -2 -12   11.70   12.10
  -5   2  12    4.30    6.50
   4  -2 -12   70.89   12.40
  -4   2  12   83.39    9.20
   3  -2 -12   82.59   10.00
  -3   2  12   84.39    8.50
   2  -2 -12   19.30    4.90
  -2   2  12   15.10    4.30
   1  -2 -12  230.78   14.60
  -1   2  12  227.78   13.10
   0  -2 -12   18.10    5.80
   0  -2 -12   14.10    4.60
   0   2  12   12.00    2.20
  -1  -2 -12   13.90    7.20
  -1  -2 -12    1.10    5.00
   1   2  12    1.40    1.10
  -2  -2 -12   65.79    9.30
   2   2  12   74.19    4.20
  -3  -2 -12   26.30    6.60
   3   2  12   28.10    2.10
  -4  -2 -12    8.00    7.10
   5  -3 -12    2.30   13.30
  -5   3  12    3.20    6.40
   4  -3 -12   22.50    8.70
  -4   3  12   20.20    5.50
   3  -3 -12   12.20    5.80
  -3   3  12   11.20    4.60
   2  -3 -12   57.09    8.80
  -2   3  12   67.19    8.30
   1  -3 -12  389.26   23.50
   0  -3 -12   24.60    7.20
   0  -3 -12   24.40    6.70
  -1  -3 -12   76.49    9.50
   1   3  12   79.29    4.60
  -2  -3 -12  128.99   11.80
   2   3  12  135.89    7.30
  -3  -3 -12   65.99   10.20
   3   3  12   66.79    4.00
  -4  -3 -12   -6.80    6.90
   4   3  12    0.30    0.90
   5  -4 -12   54.99   12.60
  -5   4  12   67.49   10.70
   4  -4 -12    3.80    8.50
  -4   4  12    8.90    6.30
   3  -4 -12   67.69   11.70
  -3   4  12   42.80    6.90
   2  -4 -12   -0.30    5.70
  -2   4  12    4.70    5.10
   1  -4 -12  259.77   18.30
   0  -4 -12   84.09   11.20
  -1  -4 -12  158.28   13.30
   1   4  12  153.38    8.40
  -2  -4 -12   24.80    6.60
   2   4  12   24.90    2.10
  -3  -4 -12    3.90    7.20
   3   4  12   -1.20    1.60
   4  -5 -12   15.90    9.70
  -4   5  12   -2.30    6.00
   3  -5 -12   57.99    9.80
  -3   5  12   49.70    9.50
   2  -5 -12   31.20    8.90
  -2   5  12   26.60    6.50
   1  -5 -12   98.69   15.30
   0  -5 -12   17.50   10.20
   0  -5 -12    2.30    7.00
  -1  -5 -12  278.07   18.60
   1   5  12  250.87   13.90
  -2  -5 -12   39.40    8.40
   2   5  12   27.80    2.50
  -3  -5 -12    9.90    7.00
   3   5  12   17.30    2.00
   4  -6 -12    0.20   11.20
  -4   6  12   12.10    7.20
   3  -6 -12   67.59   11.80
  -3   6  12   76.59   11.20
   2  -6 -12   25.60    9.90
  -2   6  12   12.40    6.70
   1  -6 -12   30.80   10.70
  -1   6  12   12.50    6.80
   0  -6 -12   47.90    9.50
  -1  -6 -12  107.39   14.10
  -2  -6 -12    1.80    7.50
   2   6  12   -0.90    1.80
   2  -7 -12   70.09   14.10
  -2   7  12   34.00    8.20
   1  -7 -12    7.90   13.40
  -1   7  12   11.10    6.50
  -1  -7 -12    2.60    7.40
   1   8 -13   33.30    7.20
   0   8 -13   43.80    8.20
   0  -8  13   27.90    4.60
  -1   8 -13   -6.80    8.60
   2   7 -13   -1.20    5.90
  -2  -7  13   10.10    2.80
  -1  -7  13  150.38   10.40
   0   7 -13   62.79   12.20
   0  -7  13   33.40    4.30
  -1   7 -13   -0.30    7.60
   1  -7  13    1.70    3.50
   2  -7  13   35.00    6.80
  -3  -6  13    4.20    2.30
   2   6 -13   28.60    5.50
  -2  -6  13   30.30    3.70
   1   6 -13   49.99    7.90
  -1  -6  13   59.09    4.90
   0   6 -13  109.49   10.50
   0  -6  13   95.99    7.10
  -1   6 -13  360.16   22.00
   1  -6  13  333.47   19.30
  -2   6 -13   29.20    9.30
   2  -6  13   16.70    4.30
   3  -6  13   -0.30    6.20
  -4  -5  13    4.30    2.40
   3   5 -13  112.49   10.40
  -3  -5  13  115.99    7.40
   2   5 -13    8.10    4.50
  -2  -5  13    9.70    2.30
   1   5 -13  123.19    9.20
  -1  -5  13  120.69    7.70
   0   5 -13    4.30    4.70
   0  -5  13    4.90    2.20
  -1   5 -13  120.99   12.00
   1  -5  13  124.29    8.10
  -2   5 -13   51.79    9.50
   2  -5  13   38.10    5.30
  -3   5 -13   93.89   19.30
   3   4 -13   83.49    8.80
  -3  -4  13   99.29    6.30
   2   4 -13  101.29    8.30
  -2  -4  13   99.89    6.60
   1   4 -13    0.80    3.00
  -1  -4  13    1.80    1.80
   0   4 -13    2.20    3.60
   0  -4  13    3.60    2.20
  -1   4 -13   39.20    7.90
   1  -4  13   33.20    4.10
  -2   4 -13   14.90    8.10
   2  -4  13   18.40    3.40
  -3   4 -13    7.30   12.20
   3  -4  13   -2.30    3.00
  -5  -3  13    1.50    3.50
   4   3 -13   27.00    8.30
  -4  -3  13   24.00    3.60
   3   3 -13   38.80    6.90
  -3  -3  13   36.60    3.90
   2   3 -13   45.00    5.50
  -2  -3  13   43.70    4.00
   1   3 -13    9.20    3.20
  -1  -3  13    7.80    2.20
   0   3 -13  175.18   11.10
   0  -3  13  168.18   10.10
  -1   3 -13  178.48   11.80
   1  -3  13  154.28    9.80
  -2   3 -13   42.80    7.40
   2  -3  13   25.40    3.90
  -3   3 -13   41.80   12.90
   4  -3  13   51.49    5.40
  -5  -2  13   13.10    4.60
   4   2 -13  103.99   14.10
  -4  -2  13   74.09    6.60
   3   2 -13   95.59    8.80
  -3  -2  13   92.29    6.60
   2   2 -13   30.60    4.70
  -2  -2  13   36.20    3.80
  -1  -2  13   14.50    2.60
   0   2 -13  136.39    8.70
   0  -2  13  110.79    7.80
  -1   2 -13   68.19    7.30
   1  -2  13   59.49    4.90
  -2   2 -13   20.30    6.00
   2  -2  13   14.90    2.50
  -3   2 -13   49.90    8.10
   3  -2  13   43.20    4.00
  -4   2 -13   72.29   13.00
   4  -2  13   69.39    5.30
   5   1 -13   11.70   17.70
   4   1 -13   17.30    7.70
  -4  -1  13   25.30    4.00
   3   1 -13  259.07   15.60
  -3  -1  13  242.48   14.20
   2   1 -13  230.78   13.40
  -2  -1  13  228.48   13.00
   1   1 -13  106.79    7.30
  -1  -1  13  103.49    6.90
   0   1 -13   48.10    5.30
   0  -1  13   40.40    4.30
  -1   1 -13   20.30    3.70
   1  -1  13   26.20    3.80
  -2   1 -13    7.00    5.70
   2  -1  13    2.00    1.50
  -3   1 -13  119.19   11.90
   3  -1  13  121.39    7.20
  -4   1 -13   82.29   12.20
   4  -1  13  102.89    6.20
   5   0 -13   23.30   15.50
   4   0 -13  196.68   16.00
  -4   0  13  178.18   14.70
   3   0 -13  167.48   12.10
   2   0 -13  279.77   16.60
  -2   0  13  292.77   15.70
  -2   0  13  278.87   16.90
   1   0 -13  331.87   18.30
  -1   0  13  334.37   18.30
   0   0 -13   13.10    6.20
   0   0 -13   17.60    3.10
   0   0  13   16.70    2.60
  -1   0 -13  252.07   14.40
  -1   0 -13  263.27   16.60
  -2   0 -13   91.19   10.00
   2   0  13   80.99    5.10
  -3   0 -13   44.70    8.00
   3   0  13   31.90    2.80
  -4   0 -13    1.80    7.40
   4   0  13    6.50    1.60
  -5   1  13   42.80    9.10
   4  -1 -13    9.00    7.50
  -4   1  13   11.00    6.00
   3  -1 -13  106.29    9.90
  -3   1  13   94.99   11.40
   2  -1 -13  203.28   13.60
  -2   1  13  224.28   13.80
   1  -1 -13    7.20    3.80
  -1   1  13   18.60    3.00
  -1   1  13   12.30    4.60
   0  -1 -13   34.50    7.00
   0  -1 -13   41.40    6.30
   0   1  13   26.30    3.80
  -1  -1 -13  121.29   10.60
  -1  -1 -13  134.99   10.70
   1   1  13  116.39    7.10
  -2  -1 -13  170.48   13.60
   2   1  13  173.58    9.40
  -3  -1 -13   90.09   11.40
   3   1  13  103.39    5.80
  -4  -1 -13   37.90   11.60
   4   1  13   35.30    2.80
   5  -2 -13   11.70   10.80
  -5   2  13   -5.40   11.00
   4  -2 -13   30.30    8.30
  -4   2  13   29.70    6.60
   3  -2 -13   78.39    9.80
  -3   2  13   76.69    8.90
   2  -2 -13   45.30    7.50
  -2   2  13   39.90    7.40
  -1   2  13  366.36   20.30
   0  -2 -13   -5.80    5.90
   0  -2 -13    1.90    4.80
   0   2  13   -1.60    2.00
  -1  -2 -13   34.20    6.80
   1   2  13   33.10    2.90
  -2  -2 -13  219.68   16.20
   2   2  13  218.38   11.70
  -3  -2 -13   15.70    6.70
   3   2  13    7.10    1.20
  -4  -2 -13   -3.20    7.10
   5  -3 -13   36.20   12.00
  -5   3  13   17.50    7.30
   4  -3 -13   15.90    8.30
  -4   3  13    0.70    5.50
   3  -3 -13   12.60    6.00
  -3   3  13   19.90    5.10
   2  -3 -13  261.37   17.70
  -2   3  13  273.67   17.50
   1  -3 -13   14.40    6.10
   0  -3 -13   -0.70    6.60
   0  -3 -13   -8.60    7.30
  -1  -3 -13  116.69   11.80
   1   3  13  117.09    6.80
  -2  -3 -13   12.50    6.30
  -3  -3 -13    5.30    7.10
  -4  -3 -13   27.00    8.20
   4   3  13   22.30    2.00
  -5   4  13   -0.10    6.80
  -4   4  13   -6.00    6.50
   3  -4 -13   72.29   12.40
  -3   4  13   61.89    9.60
   2  -4 -13  117.89   12.80
  -2   4  13  127.09   11.80
   1  -4 -13    7.90    7.40
   0  -4 -13  166.78   15.30
   0  -4 -13  201.88   18.80
  -1  -4 -13   87.49   10.90
   1   4  13   63.39    4.50
  -2  -4 -13   58.49   10.80
   2   4  13   70.29    4.20
  -3  -4 -13   20.70    7.30
   3   4  13   19.40    1.90
   4  -5 -13   64.39   12.20
  -4   5  13   34.60    8.50
   3  -5 -13  -10.30    8.50
  -3   5  13  -10.90    6.00
   2  -5 -13  161.18   18.00
  -2   5  13  175.28   14.30
   1  -5 -13   35.60   10.00
  -1   5  13    8.20    6.00
   0  -5 -13  188.98   16.10
   0  -5 -13  196.38   23.40
  -1  -5 -13   24.10    8.00
   1   5  13   17.90    2.80
  -2  -5 -13   17.40    7.80
   2   5  13   10.20    1.80
  -3  -5 -13   44.80    8.90
   3   5  13   47.00    3.20
   3  -6 -13   24.40   10.90
  -3   6  13    1.10    7.20
  -2   6  13   36.50    8.30
   1  -6 -13   25.60   11.90
  -1   6  13   10.10    7.20
   0  -6 -13   30.40   11.70
  -1  -6 -13    2.10    7.90
  -2  -6 -13    5.70    8.00
   2  -7 -13  -14.30   10.60
  -2   7  13   16.90    7.50
   1  -7 -13   91.69   19.20
  -1   7  13   67.69   13.00
   0   8 -14   -2.60    6.60
   0  -8  14   -5.20    3.80
   2   7 -14   38.90    6.90
  -2  -7  14   56.09    4.90
   1   7 -14   12.30    5.50
  -1  -7  14    7.00    3.10
   0   7 -14    5.20    6.20
   0  -7  14    1.10    5.60
  -1   7 -14   48.20    8.60
  -2   7 -14   71.09   14.00
   2  -7  14   33.90    5.90
   3   6 -14    4.40    7.00
  -3  -6  14    8.60    2.80
   2   6 -14  139.39   12.60
  -2  -6  14  178.28    9.90
   1   6 -14   60.19    8.30
  -1  -6  14   58.39    5.10
   0   6 -14   41.30    8.30
   0  -6  14   37.00    4.50
  -1   6 -14   60.29   10.60
   1  -6  14   43.60    5.50
  -2   6 -14   -4.70   10.10
   2  -6  14    1.80    3.80
  -3   6 -14   27.20   14.30
   3  -6  14    8.80    6.30
  -4  -5  14    6.60    2.60
   3   5 -14   22.50    5.20
  -3  -5  14   26.20    3.60
   2   5 -14   84.69    8.30
  -2  -5  14   97.19    6.40
   1   5 -14   18.10    4.30
  -1  -5  14   29.50    3.70
   0   5 -14  478.35   26.50
   0  -5  14  468.75   25.50
  -1   5 -14   30.60    6.20
   1  -5  14    7.50    2.90
  -2   5 -14   20.00    8.50
   2  -5  14   15.80    3.70
  -3   5 -14   41.80   13.40
   3  -5  14   16.50    4.50
  -4  -4  14  101.19    7.10
   3   4 -14   23.60    4.80
  -3  -4  14   27.30    3.70
   2   4 -14   49.80    6.70
  -2  -4  14   54.89    4.60
   1   4 -14   -0.70    3.40
  -1  -4  14    1.60    2.10
   0   4 -14  119.19    9.10
   0  -4  14  114.39    7.60
  -1   4 -14   39.00    8.00
   1  -4  14   40.00    4.50
  -2   4 -14    2.80    7.60
   2  -4  14    5.40    2.80
  -3   4 -14   -1.70   13.30
   3  -4  14    6.30    3.30
   4  -4  14  110.69    9.10
  -5  -3  14   -0.50    3.70
   4   3 -14  108.59   14.20
  -4  -3  14   89.99    7.00
   3   3 -14   45.90    7.20
  -3  -3  14   44.20    4.60
   2   3 -14    9.10    3.30
  -2  -3  14    8.70    2.30
   1   3 -14   15.00    3.40
  -1  -3  14   13.70    2.50
   0   3 -14   39.90    5.80
   0  -3  14   40.90    4.20
  -1   3 -14   13.90    4.50
   1  -3  14   10.50    2.60
  -2   3 -14   23.20    7.00
   2  -3  14   15.60    2.90
  -3   3 -14  224.98   25.20
   3  -3  14  159.58   10.20
   4  -3  14   24.10    3.80
  -5  -2  14   30.00    5.50
   4   2 -14   19.50    8.10
  -4  -2  14    5.80    3.50
   3   2 -14   36.00    7.20
  -3  -2  14   34.60    4.60
   2   2 -14   30.90    4.80
  -2  -2  14   24.10    3.70
   1   2 -14  266.37   14.70
  -1  -2  14  244.18   14.40
   0   2 -14  227.78   12.60
   0  -2  14  187.28   12.00
  -1   2 -14    2.40    4.50
   1  -2  14    6.70    2.30
  -2   2 -14   50.99    9.60
   2  -2  14   36.20    3.90
   3  -2  14   59.69    4.80
   4  -2  14    7.60    2.70
   5   1 -14   21.20   18.80
   4   1 -14  105.09   14.20
  -4  -1  14   92.29    8.00
   3   1 -14    3.80    4.80
  -3  -1  14   -3.30    3.00
   2   1 -14    5.00    3.20
   1   1 -14  146.99    9.30
  -1  -1  14  152.68    9.20
   0   1 -14    9.30    3.00
  -1   1 -14   18.40    4.10
   1  -1  14   22.70    3.00
   2  -1  14   83.29    5.50
  -3   1 -14   82.69   12.90
   3  -1  14   69.39    4.90
  -4   1 -14    9.60    9.70
   4  -1  14   20.40    2.70
   5   0 -14   59.49   13.90
   4   0 -14   81.49   12.50
   3   0 -14  225.68   15.00
   2   0 -14  131.39    9.90
  -2   0  14  145.79    8.80
   1   0 -14    2.70    5.70
  -1   0  14   -1.40    2.40
   0   0 -14   68.79    6.20
   0   0 -14   64.79   11.90
   0   0  14   66.09    5.40
  -1   0 -14   78.09   10.20
  -1   0 -14   91.89    6.90
   1   0  14   68.59    5.30
  -2   0 -14  147.69   15.00
   2   0  14  154.38    8.70
  -3   0 -14  125.29   13.30
   3   0  14  120.19    7.10
  -4   0 -14   39.60    9.80
   4   0  14   21.40    2.80
   5  -1 -14   63.79   13.10
  -5   1  14   42.90   11.40
   4  -1 -14   62.09   13.30
  -4   1  14   63.29   10.70
   3  -1 -14  322.57   19.60
  -3   1  14  325.87   20.20
   2  -1 -14   78.19    8.40
  -2   1  14   93.59    8.70
   1  -1 -14   -2.20    3.90
  -1   1  14    1.00    4.60
  -1   1  14    1.30    2.80
   0  -1 -14   93.19    8.20
   0  -1 -14   86.09   11.40
   0   1  14   77.79    6.20
  -1  -1 -14  111.89   11.00
   1   1  14   92.19    6.10
  -2  -1 -14   65.99   10.20
   2   1  14   41.40    3.40
  -3  -1 -14    8.60    7.20
   3   1  14   10.40    1.60
  -4  -1 -14   26.70    9.50
   4   1  14   20.40    2.40
   5  -2 -14    4.70   11.80
  -5   2  14   -1.70    8.40
   4  -2 -14   16.80    8.10
  -4   2  14    0.30    5.90
   3  -2 -14   79.39   10.60
  -3   2  14   78.69    9.80
   2  -2 -14   24.40    5.20
  -2   2  14   27.40    6.30
   1  -2 -14    3.20    4.90
  -1   2  14    3.50    5.60
   0  -2 -14  188.98   13.40
   0  -2 -14  183.48   14.80
   0   2  14  153.78   10.20
  -1  -2 -14  217.48   15.70
   1   2  14  206.98   11.70
  -2  -2 -14   23.40    6.90
   2   2  14   26.00    2.50
  -3  -2 -14   27.10    7.90
   3   2  14   30.70    2.60
  -4  -2 -14   -2.30    8.10
   4   2  14   -2.00    1.20
  -5   3  14    8.10    8.10
   4  -3 -14   58.29   10.90
  -4   3  14   55.29   10.40
   3  -3 -14   47.90    7.90
  -3   3  14   52.49    8.90
   2  -3 -14  130.49   12.40
  -2   3  14  127.69   11.80
   1  -3 -14    5.80    6.60
   0  -3 -14   96.99   14.50
   0  -3 -14   57.69   11.80
  -1  -3 -14  107.39   12.10
   1   3  14  107.29    6.70
  -2  -3 -14   11.40    6.50
   2   3  14    8.70    1.50
   3   3  14    3.20    1.60
   4  -4 -14   31.20   10.30
  -4   4  14   24.80    7.40
   3  -4 -14  128.19   15.10
  -3   4  14  129.29   12.70
   2  -4 -14   44.60    8.80
  -2   4  14   59.39   10.00
   1  -4 -14   -3.00    8.00
  -1   4  14   -1.20    5.90
   0  -4 -14  100.19   13.10
   0  -4 -14  122.59   18.60
  -1  -4 -14    7.80    7.20
   1   4  14    0.10    2.00
  -2  -4 -14    9.90    7.20
  -3  -4 -14   59.69   11.70
   3   4  14   55.09    3.70
   4  -5 -14   25.90   10.40
  -4   5  14   15.20    7.40
   3  -5 -14   40.00   11.20
   2  -5 -14   17.20   10.20
  -2   5  14    5.90    6.70
   1  -5 -14  220.68   21.70
  -1   5  14  198.18   16.30
   0  -5 -14   28.20    8.80
  -1  -5 -14   41.30    9.40
  -2  -5 -14   73.19   11.60
   2   5  14   37.20    3.70
   3  -6 -14  111.69   14.40
  -3   6  14   76.09   12.60
   2  -6 -14    2.90   11.50
  -2   6  14    6.70    6.80
   1  -6 -14  180.48   22.90
  -1   6  14  145.89   15.00
   0  -6 -14   -9.30    8.20
  -1  -6 -14   45.50    9.90
  -1   7  14  135.79   14.40
   2   7 -15   40.60    8.60
  -2  -7  15   59.79    5.10
   1   7 -15   13.20    5.80
  -1  -7  15   20.50    3.50
   0   7 -15    4.30    5.90
   0  -7  15    1.40    3.20
  -1   7 -15   55.39   11.40
   1  -7  15   57.49    6.40
  -2   7 -15   -5.80    9.20
   2  -7  15    1.60    5.10
   3   6 -15   82.09   10.50
  -3  -6  15   86.89    6.20
  -2  -6  15   -1.30    2.20
   1   6 -15   -1.80    4.50
  -1  -6  15    1.50    2.50
   0   6 -15  124.39   10.60
   0  -6  15  110.89    8.00
  -1   6 -15   28.20    7.00
   1  -6  15   20.00    3.90
  -2   6 -15   16.20    9.10
   2  -6  15    1.30    4.30
  -3   6 -15   19.20   13.20
   3  -6  15   12.70    6.00
   3   5 -15  142.69   11.40
  -3  -5  15  144.39    8.90
   2   5 -15   67.69    8.30
  -2  -5  15   66.09    5.30
   1   5 -15  175.48   11.80
  -1  -5  15  174.68   10.40
   0   5 -15    6.50    4.30
   0  -5  15    8.60    2.90
  -1   5 -15    5.40    5.60
   1  -5  15   -0.60    2.60
  -2   5 -15   41.60    9.20
   2  -5  15   43.60    5.50
  -3   5 -15  -30.90   18.70
   3  -5  15    6.30    4.10
   4   4 -15   34.40   10.90
  -4  -4  15   17.20    3.60
   3   4 -15   99.19    9.60
  -3  -4  15  109.89    7.10
   2   4 -15    3.80    3.60
  -2  -4  15    1.50    2.20
   1   4 -15  449.56   24.30
  -1  -4  15  435.36   23.90
   0   4 -15    8.80    3.90
   0  -4  15   10.40    2.70
  -1   4 -15    6.50    4.90
   1  -4  15    3.40    2.60
  -2   4 -15   38.20    8.10
   2  -4  15   29.40    4.00
  -3   4 -15  133.29   21.50
   3  -4  15   71.29    6.70
   4  -4  15    2.30    4.20
  -4  -3  15   18.30    4.00
   3   3 -15    3.10    4.30
  -3  -3  15    5.40    2.70
   2   3 -15    7.30    3.00
  -2  -3  15    5.80    2.40
   1   3 -15  116.89    8.30
  -1  -3  15  114.09    7.60
   0   3 -15   37.00    5.70
   0  -3  15   41.50    4.40
  -1   3 -15    4.30    4.20
   1  -3  15    5.30    2.50
  -2   3 -15   65.79   10.50
   2  -3  15   54.69    5.10
   3  -3  15   65.39    5.60
   4  -3  15   67.69    6.20
   4   2 -15   22.40    8.20
  -4  -2  15   13.20    4.00
   3   2 -15   19.60    5.20
  -3  -2  15   19.50    3.40
   2   2 -15   31.30    5.20
  -2  -2  15   30.90    4.10
   1   2 -15   44.70    5.10
  -1  -2  15   38.90    4.40
   0   2 -15    4.50    3.10
   0  -2  15    3.30    2.40
  -1   2 -15   87.89    8.00
   1  -2  15   85.19    6.20
  -2   2 -15  230.18   14.90
   2  -2  15  191.78   11.90
   3  -2  15    6.50    2.40
   4  -2  15    5.60    2.60
   5   1 -15   13.70   15.30
   4   1 -15   27.00    8.20
  -4  -1  15   14.20    4.70
   3   1 -15   40.80    7.80
  -3  -1  15   49.20    5.60
   2   1 -15  228.68   13.80
  -2  -1  15  237.48   13.50
   1   1 -15  132.59    9.00
  -1  -1  15  154.28    9.10
   0   1 -15    6.00    2.80
   0  -1  15   -0.30    2.40
  -1   1 -15   60.49    8.10
   1  -1  15   49.90    4.60
   2  -1  15   57.99    4.60
  -3   1 -15   -0.50    9.40
  -4   1 -15    0.90   14.20
   4  -1  15    4.30    2.10
   5   0 -15  130.49   23.40
   4   0 -15   30.70    8.90
   3   0 -15   -3.60    5.00
  -3   0  15    5.50    3.90
   2   0 -15   95.69    8.40
  -2   0  15   90.99    7.20
   1   0 -15   -2.70    3.50
  -1   0  15   -4.50    2.60
   0   0 -15   30.00    5.50
   0   0  15   23.90    3.60
  -1   0 -15  198.38   11.50
   1   0  15  155.68   10.20
  -2   0 -15   71.09   12.00
   2   0  15   53.49    4.20
  -3   0 -15   42.30    9.90
   3   0  15   49.00    3.90
  -4   0 -15  106.89   16.20
   4   0  15   85.29    5.80
   5  -1 -15   34.60   12.90
   4  -1 -15  155.58   16.10
  -4   1  15  154.98   15.70
   3  -1 -15   75.19    9.40
  -3   1  15   75.49   10.10
   2  -1 -15   29.30    5.20
   1  -1 -15  112.79    9.50
  -1   1  15  125.99    8.50
   0  -1 -15  223.68   15.80
   0  -1 -15  156.38   14.40
   0   1  15  192.48   11.30
  -1  -1 -15  140.59   12.50
  -1  -1 -15  145.89   15.20
   1   1  15  119.69    7.90
  -2  -1 -15   89.49   12.20
   2   1  15   87.19    5.60
  -3  -1 -15   65.79   12.60
   3   1  15   62.49    4.40
  -4  -1 -15   32.10   10.20
   4   1  15   32.60    3.10
   5  -2 -15   17.60   11.80
  -5   2  15   26.30   10.30
   4  -2 -15  270.77   20.60
  -4   2  15  245.28   18.80
   3  -2 -15    0.10    5.90
  -3   2  15    2.20    5.90
   2  -2 -15    3.30    5.10
  -2   2  15    8.00    6.10
   1  -2 -15   -5.20    5.00
   0  -2 -15   78.39   12.30
   0  -2 -15   96.99   10.80
   0   2  15   67.99    6.30
  -1  -2 -15   39.30    8.30
   1   2  15   31.60    3.70
  -2  -2 -15   83.89   11.40
   2   2  15   71.19    4.90
  -3  -2 -15   -0.30    8.30
   4  -3 -15    7.20    9.40
  -4   3  15    2.80    7.10
   3  -3 -15   59.79   11.30
  -3   3  15   61.59   10.20
   2  -3 -15   30.80    7.10
  -2   3  15   38.60    7.30
   1  -3 -15  133.29   14.30
  -1   3  15  123.89   12.80
   0  -3 -15  219.38   16.40
   0   3  15  169.08   11.50
  -1  -3 -15    8.70    7.10
   1   3  15    3.30    2.30
  -2  -3 -15    4.90    7.50
   2   3  15    4.80    1.80
  -3  -3 -15   17.40    8.30
   3   3  15   19.10    2.50
   4  -4 -15   54.19   11.80
  -4   4  15   54.29   10.00
   3  -4 -15    4.40    8.30
  -3   4  15    8.90    6.60
   2  -4 -15    3.90    8.00
  -2   4  15   10.20    6.60
   1  -4 -15  109.59   15.90
  -1   4  15   99.69   12.50
   0  -4 -15   44.70   12.80
   0  -4 -15   20.50    8.90
  -1  -4 -15   12.60    8.10
   1   4  15    2.90    2.80
  -2  -4 -15   -1.60   13.70
   2   4  15    0.20    1.80
  -3  -4 -15   72.09   10.40
   3   4  15   59.89    4.30
   3  -5 -15   52.39   11.50
  -3   5  15   43.70    8.70
   2  -5 -15   -2.30   10.60
  -2   5  15   -2.90    7.00
   1  -5 -15   48.20   12.60
  -1   5  15   37.10    8.70
   0  -5 -15    4.50    8.70
  -1  -5 -15   23.10    9.20
  -2  -5 -15   30.50    8.90
   2   5  15   32.90    4.20
   2  -6 -15  100.49   22.50
  -2   6  15  112.19   13.50
   1  -6 -15   43.80   20.30
  -1  -6 -15   26.00    8.80
   1   7 -16   49.10    6.60
  -1  -7  16   42.50    5.10
   0   7 -16    4.70    5.30
   0  -7  16   -2.50    3.30
  -1   7 -16   28.60    7.10
   1  -7  16   15.20    4.30
   2   6 -16   13.70    6.30
  -2  -6  16   29.80    4.00
  -1  -6  16    6.30    4.50
   0   6 -16   71.79   13.80
   0  -6  16   64.59    5.80
  -1   6 -16   16.80    7.50
   1  -6  16   10.20    4.20
  -2   6 -16    0.90    8.30
   2  -6  16    9.70    4.20
   3   5 -16    4.60    4.80
  -3  -5  16   -0.60    2.60
  -2  -5  16   18.50    3.10
   1   5 -16  169.58   11.10
  -1  -5  16  158.38   10.00
   0   5 -16    2.50    4.20
   0  -5  16   -1.20    2.50
  -1   5 -16    5.60    5.60
   1  -5  16   -1.60    3.00
  -2   5 -16   35.00    8.60
   2  -5  16   17.30    3.90
  -3   5 -16   24.60   13.80
   3  -5  16    8.80    4.10
   4   4 -16  172.58   17.80
  -4  -4  16  133.19    9.40
   3   4 -16   27.20    5.30
  -3  -4  16   28.20    4.10
   2   4 -16  306.17   17.50
  -2  -4  16  316.77   17.30
   1   4 -16    5.50    3.50
  -1  -4  16    9.60    2.70
   0   4 -16   -5.00    3.70
   0  -4  16   -4.10    2.40
  -1   4 -16   90.19    8.80
   1  -4  16   72.59    6.30
  -2   4 -16   11.50    7.60
   2  -4  16    0.10    2.90
  -3   4 -16   29.80   19.40
   3  -4  16   47.70    5.40
  -4  -3  16   51.59    6.00
   3   3 -16   45.00    8.10
  -3  -3  16   44.60    5.00
   2   3 -16  290.87   16.70
  -2  -3  16  300.77   16.50
   1   3 -16   14.40    3.60
  -1  -3  16   10.30    2.80
   0   3 -16    3.50    3.50
   0  -3  16    0.70    2.40
  -1   3 -16   33.70    5.60
   1  -3  16   32.50    4.30
  -2   3 -16  186.78   14.40
   2  -3  16  149.09   10.00
   3  -3  16   34.20    4.50
   4  -3  16    5.10    3.40
   4   2 -16   10.30    8.00
  -4  -2  16   -2.90    4.10
  -3  -2  16   -0.40    3.10
   2   2 -16  104.99    8.20
  -2  -2  16  113.19    7.60
   1   2 -16   22.50    4.60
  -1  -2  16   16.90    3.20
   0   2 -16    1.60    3.50
   0  -2  16    2.30    2.60
  -1   2 -16  158.68   10.50
   1  -2  16  133.09    9.10
  -2   2 -16   16.90    6.10
   2  -2  16   15.90    2.70
   3  -2  16   75.59    5.70
   4  -2  16   18.00    3.20
   5   1 -16   -1.00   15.90
   4   1 -16   34.60    9.20
  -4  -1  16   22.30    5.70
   3   1 -16   36.80    6.30
  -3  -1  16   37.30    4.90
   2   1 -16   26.50    4.40
  -2  -1  16   29.00    3.90
   1   1 -16    3.20    3.10
  -1  -1  16    8.80    3.00
   0   1 -16  198.38   10.90
   0  -1  16  148.39   10.60
  -1   1 -16  188.28   11.20
   1  -1  16  164.08   10.50
   2  -1  16   -3.30    1.90
   3  -1  16    3.80    2.10
   4  -1  16   14.00    2.80
   5   0 -16   39.10   13.90
   4   0 -16   27.90    8.00
   3   0 -16  184.38   13.60
  -3   0  16  184.58   12.20
   2   0 -16   42.90    7.10
  -2   0  16   29.70    4.50
   1   0 -16   16.30    4.00
  -1   0  16   15.80    3.50
   0   0 -16   66.69    6.80
   0   0  16   55.49    5.60
  -1   0 -16   47.80    7.50
   1   0  16   35.70    4.20
  -2   0 -16   27.70    9.60
   2   0  16   32.40    3.60
  -3   0 -16   32.90   10.80
   3   0  16   13.50    2.50
  -4   0 -16   15.10   12.10
   4   0  16    7.90    2.30
   5  -1 -16   51.99   13.20
   4  -1 -16    7.50    8.20
   3  -1 -16    6.70    5.80
   2  -1 -16   -3.60    4.40
   1  -1 -16   60.49    7.80
  -1   1  16   38.70    5.30
   0  -1 -16  192.68   12.40
   0  -1 -16  193.68   22.70
   0   1  16  146.49   10.60
  -1  -1 -16   34.00   11.90
  -1  -1 -16   53.29    9.60
   1   1  16   24.70    3.90
  -2  -1 -16  147.39   14.70
   2   1  16  122.69    7.70
  -3  -1 -16  128.69   15.90
   4  -2 -16   13.20   11.40
  -4   2  16   13.60    8.90
   3  -2 -16   28.40    7.00
  -3   2  16   26.80    7.70
   2  -2 -16   76.69   10.20
  -2   2  16   76.39   11.40
   1  -2 -16  293.57   19.50
  -1   2  16  324.67   20.90
   0  -2 -16  106.09   12.30
   0  -2 -16   82.69   11.60
   0   2  16   80.99    7.10
  -1  -2 -16   40.20    9.10
   1   2  16   18.70    3.00
  -2  -2 -16   81.49   12.70
   2   2  16   83.79    5.70
  -3  -2 -16   15.40   11.10
   3   2  16   20.10    2.80
   4  -3 -16   -9.00    9.00
   3  -3 -16    7.70    7.50
  -3   3  16    8.10    7.40
   2  -3 -16   10.90    7.20
  -2   3  16    8.30    6.80
   1  -3 -16   73.69   13.70
  -1   3  16   59.79    9.50
   0  -3 -16   -2.60    8.90
   0  -3 -16   25.00   10.70
   0   3  16    6.00    4.00
  -1  -3 -16  126.29   14.10
   1   3  16  114.79    7.80
  -2  -3 -16    0.80    8.10
   2   3  16    3.50    2.10
  -3  -3 -16  119.59   14.80
   3   3  16  139.89    7.90
   4  -4 -16   33.70   11.50
  -4   4  16   53.29   10.70
   3  -4 -16   72.79   11.90
  -3   4  16   76.49   12.20
   2  -4 -16   56.39   10.50
  -2   4  16   60.29   11.50
   1  -4 -16  160.88   18.40
  -1   4  16  162.78   15.50
   0  -4 -16   49.60   17.30
   0  -4 -16   37.20   10.10
  -1  -4 -16    0.80    8.50
   1   4  16    4.60    3.50
  -2  -4 -16   93.39   13.30
   2   4  16   75.59    5.80
   3  -5 -16   13.40   11.00
  -3   5  16    3.10    7.50
   2  -5 -16   82.89   13.90
  -2   5  16   48.80    9.60
   1  -5 -16   13.20   12.70
  -1   5  16   -9.70    7.80
   0  -5 -16   -4.20   11.70
  -1  -5 -16   26.10    9.30
   2  -6 -16   12.80   12.20
  -2   6  16   11.50    7.80
  -1   6  16   -2.20    7.90
  -1  -7  17   32.30    4.40
   0   7 -17   13.00    5.50
   0  -7  17    3.10    3.40
   2   6 -17   15.30    4.60
  -2  -6  17   18.20    3.20
   1   6 -17    2.50    4.20
  -1  -6  17    5.70    2.90
   0   6 -17   -2.10    4.90
   0  -6  17   -3.40    2.70
  -1   6 -17    7.80    6.10
   1  -6  17   10.80    3.60
  -2   6 -17   45.00    9.20
   2  -6  17   37.50    5.30
   3   5 -17   11.80    5.20
  -3  -5  17    6.40    2.90
  -2  -5  17   67.19    6.30
   1   5 -17   27.20    6.00
  -1  -5  17   27.90    4.20
   0   5 -17    5.10    4.50
   0  -5  17   10.40    3.20
  -1   5 -17   41.40    6.30
   1  -5  17   31.30    4.90
  -2   5 -17  126.49   13.80
   2  -5  17   93.89    7.90
  -3   5 -17  -19.40   14.90
   3  -5  17    2.50    4.00
   4   4 -17   26.20   10.90
  -4  -4  17    1.50    3.50
  -3  -4  17   90.49    7.30
   2   4 -17   90.29    7.30
  -2  -4  17   91.79    6.70
   1   4 -17   -4.80    3.30
  -1  -4  17   -1.40    2.50
   0   4 -17   -1.50    3.90
   0  -4  17   -6.20    2.30
  -1   4 -17   15.10    5.20
   1  -4  17   12.00    3.30
  -2   4 -17    8.20    8.00
   2  -4  17   15.50    3.40
   3  -4  17    7.60    3.40
   4   3 -17    9.00    8.70
  -4  -3  17    8.20    4.10
   3   3 -17  301.47   18.20
  -3  -3  17  292.57   16.90
   2   3 -17   28.00    5.20
  -2  -3  17   27.20    4.20
   1   3 -17    3.70    3.30
  -1  -3  17    2.50    2.70
   0   3 -17  110.89    8.30
   0  -3  17   96.49    7.40
  -1   3 -17   18.40    5.00
   1  -3  17   24.90    3.70
  -2   3 -17   18.00    7.40
   2  -3  17   34.50    4.10
   3  -3  17    5.60    3.00
   4   2 -17   68.39   14.20
  -4  -2  17   66.29    7.90
   3   2 -17  182.78   13.40
  -3  -2  17  181.38   11.50
   2   2 -17    7.30    3.70
  -2  -2  17    5.80    3.10
   1   2 -17    8.40    3.20
  -1  -2  17    4.50    2.90
   0   2 -17   85.79    6.70
   0  -2  17   61.09    6.10
  -1   2 -17  182.08   11.50
   1  -2  17  142.39    9.90
  -2   2 -17   77.39   10.90
   2  -2  17   66.29    5.50
   3  -2  17    6.10    2.60
   3   1 -17   66.69    9.00
  -3  -1  17   60.49    7.00
   2   1 -17    8.10    4.30
  -2  -1  17   14.10    3.80
   1   1 -17   26.20    5.40
  -1  -1  17   22.80    3.90
   0   1 -17  167.28   10.20
   0  -1  17  141.59    9.90
  -1   1 -17   -0.10    4.00
   1  -1  17   -0.40    2.40
   2  -1  17   77.09    5.70
   3  -1  17   33.70    4.20
   3   0 -17   18.60    6.00
  -3   0  17   23.40    5.70
   2   0 -17   45.40    7.60
  -2   0  17   33.40    5.00
   1   0 -17  195.28   13.00
  -1   0  17  197.38   12.30
   0   0 -17  119.69    9.20
   0   0  17   89.09    7.60
  -1   0 -17    7.60    5.70
   1   0  17    5.30    2.50
   2   0  17    5.60    2.20
   3   0  17   12.70    2.40
   4  -1 -17  109.79   15.60
   3  -1 -17    0.30    6.10
   2  -1 -17   16.00    5.80
  -2   1  17   17.50    5.30
   1  -1 -17   73.69    9.00
  -1   1  17   68.69    7.30
   0  -1 -17   18.50   15.30
   0   1  17   10.20    3.50
  -1  -1 -17   77.19   14.50
   1   1  17   58.99    5.30
  -2  -1 -17   21.70   10.10
   2   1  17   22.00    3.10
  -3  -1 -17   -8.60   11.10
   3   1  17    0.00    2.00
   4  -2 -17   -0.70    9.00
   3  -2 -17    4.00    7.20
  -3   2  17   -2.30    8.70
   2  -2 -17   95.29   11.30
  -2   2  17  107.19   13.00
   1  -2 -17  123.69   12.20
  -1   2  17  130.19   14.10
  -1   2  17   89.39    9.60
   0  -2 -17   15.30   10.20
   0   2  17   15.20    4.20
  -1  -2 -17  234.38   19.10
   1   2  17  207.18   12.60
  -2  -2 -17   72.39   13.50
   2   2  17   72.59    5.40
  -3  -2 -17    3.90    9.60
   3   2  17    5.40    2.30
   4  -3 -17    5.50    9.50
  -4   3  17  -11.30    9.10
   3  -3 -17   34.70   10.20
  -3   3  17   33.20    9.20
   2  -3 -17  172.08   16.60
  -2   3  17  187.88   16.30
   1  -3 -17   62.29   10.30
  -1   3  17   70.59   12.50
   0  -3 -17   13.00   11.80
   0  -3 -17    6.70    9.80
   0   3  17    6.30    4.60
  -1  -3 -17   32.80   10.00
   1   3  17   40.20    5.10
  -2  -3 -17   37.80   14.30
   2   3  17   36.20    4.90
   3  -4 -17   26.10   10.10
  -3   4  17   13.50    8.40
   2  -4 -17   20.60   10.20
  -2   4  17   29.00    8.80
   1  -4 -17   15.30   11.00
  -1   4  17    0.70    8.20
   0  -4 -17   99.49   14.90
  -1  -4 -17   26.60   13.90
   1   4  17    9.30    4.30
  -2  -4 -17  126.19   14.90
   2   4  17  115.89    8.00
   3  -5 -17   34.80   11.80
  -3   5  17   50.89    9.60
   2  -5 -17   60.29   13.10
  -2   5  17   42.60    9.70
  -1   5  17   33.90    8.90
  -1  -5 -17   49.50   10.50
   2   6 -18    4.00    3.80
  -2  -6  18    6.70    3.00
   1   6 -18   24.40    4.70
  -1  -6  18   26.60    3.90
   0   6 -18   -0.50    4.70
   0  -6  18    3.70    3.10
  -1   6 -18    6.00    6.20
   1  -6  18    4.20    3.50
   3   5 -18    2.70    5.10
  -3  -5  18    3.10    3.00
   2   5 -18   28.10    5.50
  -2  -5  18   32.10    4.40
   0   5 -18    5.90    4.60
   0  -5  18    3.50    3.00
  -1   5 -18  127.29   15.20
   1  -5  18   98.19    8.10
  -2   5 -18   -6.60    8.40
   2  -5  18    7.10    3.40
   3   4 -18   79.29    9.80
  -3  -4  18   92.09    6.90
   2   4 -18   -1.10    3.20
  -2  -4  18    3.90    2.90
   1   4 -18    5.60    3.60
  -1  -4  18    2.80    3.00
   0   4 -18   96.49    8.10
   0  -4  18   84.99    6.90
  -1   4 -18   50.99    8.50
   1  -4  18   57.59    5.40
  -2   4 -18   15.30    7.90
   2  -4  18    7.80    3.20
   3  -4  18   42.60    5.50
   4   3 -18  180.08   18.90
  -4  -3  18  141.89   10.70
  -3  -3  18    7.30    3.70
   2   3 -18    0.90    3.40
  -2  -3  18    6.60    3.10
   1   3 -18   12.10    3.30
  -1  -3  18   14.10    3.30
   0   3 -18   -3.80    3.60
   0  -3  18    3.10    2.90
  -1   3 -18   44.10    7.30
   1  -3  18   29.00    4.50
  -2   3 -18    0.30    6.90
   2  -3  18    1.80    2.70
   3  -3  18  143.89    9.30
   4   2 -18  162.68   16.60
  -4  -2  18  136.59   11.40
   3   2 -18   42.90    8.70
  -3  -2  18   30.20    4.80
   2   2 -18   12.50    3.80
  -2  -2  18   14.50    3.80
   1   2 -18   70.29    6.50
  -1  -2  18   75.19    6.30
   0   2 -18   84.59    6.90
   0  -2  18   61.19    6.20
  -1   2 -18   -2.80    4.10
   1  -2  18    0.80    2.60
  -2   2 -18   -7.00    6.50
   2  -2  18    2.30    2.70
   3  -2  18   58.89    5.30
   4   1 -18  105.09   14.50
   3   1 -18    3.70    5.70
  -3  -1  18   -3.60    4.60
   2   1 -18    3.50    4.40
  -2  -1  18   11.00    4.10
   1   1 -18  149.39    9.90
  -1  -1  18  133.09    9.60
   0   1 -18   70.59    7.20
   0  -1  18   64.49    6.10
  -1   1 -18  156.58   10.30
   1  -1  18  115.89    8.70
   2  -1  18    1.30    2.30
   3  -1  18    3.80    2.40
   4   0 -18   42.20    9.00
   3   0 -18   -4.30    6.10
   2   0 -18   56.39    8.10
  -2   0  18   59.59    7.40
   1   0 -18  100.99    9.40
  -1   0  18  100.89    8.40
   0   0 -18   23.40    5.70
   0   0  18   25.30    4.10
   1   0  18   85.69    6.60
   2   0  18   37.60    4.30
   3   0  18   16.20    2.80
   4  -1 -18    4.30    9.50
   3  -1 -18   46.60   10.40
   2  -1 -18  115.29   11.20
  -2   1  18   85.69   12.20
   1  -1 -18   60.59    9.30
  -1   1  18   61.59    7.40
   0  -1 -18   18.80    6.70
   0   1  18    5.90    3.70
   1   1  18    5.00    2.80
   2   1  18   26.20    3.90
   3   1  18   24.70    3.70
   4  -2 -18    6.90    9.60
   3  -2 -18   13.00    9.30
   2  -2 -18   53.69   10.90
   1  -2 -18   16.80    7.00
  -1   2  18    9.90    5.80
  -1   2  18    3.60    8.80
   0   2  18   77.29    7.70
  -1  -2 -18   38.80   12.50
   1   2  18   41.80    5.30
  -2  -2 -18  -10.80   10.80
   2   2  18    0.50    3.90
  -3  -2 -18    7.30   12.10
   3   2  18    7.50    2.70
   4  -3 -18   13.30   10.30
   3  -3 -18   99.19   15.00
  -3   3  18  128.19   16.40
   2  -3 -18   39.20    9.00
  -2   3  18   15.40    9.20
   1  -3 -18   -9.40    9.40
  -1   3  18    5.90    9.20
   0  -3 -18  259.97   22.80
   0  -3 -18  312.67   26.30
  -1  -3 -18   24.50   11.50
   1   3  18   18.00    4.30
  -2  -3 -18   -2.40    9.80
   2   3  18   12.20    3.10
   3  -4 -18   81.79   17.00
  -3   4  18   31.50    9.60
   2  -4 -18   23.50   10.20
  -2   4  18   11.50    9.40
   1  -4 -18   42.50   12.30
  -1   4  18   35.00    9.90
  -1  -4 -18   47.10   11.10
   2  -5 -18   44.30   13.00
  -2   5  18   23.10    9.00
   1  -5 -18   52.99   14.60
  -1   5  18   26.30    9.60
   1   6 -19   -4.10    3.90
  -1  -6  19    5.20    3.10
   0   6 -19    8.20    4.50
   0  -6  19   20.00    3.60
  -1   6 -19  165.78   12.70
   1  -6  19  139.19   10.10
   2   5 -19   23.60    5.20
  -2  -5  19   21.40    3.80
   1   5 -19    4.90    3.70
  -1  -5  19   12.30    3.10
   0   5 -19    6.10    4.30
   0  -5  19    1.20    3.10
  -1   5 -19   83.09    9.50
   1  -5  19   69.09    6.50
  -2   5 -19   54.69    8.90
   2  -5  19   28.80    4.70
   3   4 -19   37.20    7.80
  -3  -4  19   24.40    4.20
   2   4 -19   17.00    3.70
  -2  -4  19   19.40    3.60
   1   4 -19   12.30    3.60
  -1  -4  19   13.30    3.50
   0   4 -19   97.89    8.10
   0  -4  19   80.79    7.00
  -1   4 -19   30.40    5.80
  -2   4 -19    6.20    7.40
   2  -4  19    8.30    3.00
   3   3 -19   15.70    6.00
  -3  -3  19    9.90    4.00
   2   3 -19    4.90    3.80
  -2  -3  19    3.10    3.30
   1   3 -19  107.99    7.90
  -1  -3  19  110.19    8.00
   0   3 -19   38.30    5.90
   0  -3  19   35.30    5.10
  -1   3 -19    3.10    5.10
   1  -3  19   13.20    3.30
  -2   3 -19  122.39   13.00
   2  -3  19  109.99    7.90
   3  -3  19    3.90    3.20
   4   2 -19   10.50    8.80
  -4  -2  19   20.40    6.40
   3   2 -19    9.60    6.20
  -3  -2  19    4.60    4.40
   2   2 -19   28.60    6.40
  -2  -2  19   26.10    4.40
   1   2 -19    0.10    3.20
  -1  -2  19    6.00    3.20
   0   2 -19   52.59    6.30
   0  -2  19   46.40    5.40
  -1   2 -19   53.99    7.40
   1  -2  19   39.80    5.10
   2  -2  19   88.19    7.90
   3  -2  19    3.60    2.70
   4   1 -19   43.60   10.30
   3   1 -19   34.70    8.30
  -3  -1  19   28.30    6.00
   2   1 -19   54.99    8.30
  -2  -1  19   65.99    7.00
   1   1 -19   96.09    8.40
  -1  -1  19   91.09    8.00
   0   1 -19   53.89    7.20
   0  -1  19   39.60    5.40
  -1   1 -19    4.20    5.30
   1  -1  19    1.60    2.80
   2  -1  19  108.49    9.10
   3  -1  19   10.30    2.90
   4   0 -19   17.60    9.40
   3   0 -19   23.30    9.10
   2   0 -19  158.08   12.00
  -2   0  19  146.89   11.50
   1   0 -19    2.50    5.00
  -1   0  19    4.50    4.20
   0   0  19   77.99    7.30
  -1   0 -19   17.90    8.40
   1   0  19    0.20    2.80
   2   0  19   -4.50    3.50
   3   0  19    9.80    2.90
   4  -1 -19   -0.30    9.30
   2  -1 -19   30.70    7.20
   1  -1 -19   49.40    9.70
  -1   1  19   29.40    6.00
   0   1  19   47.70    6.30
   1   1  19   43.60    5.20
   2   1  19   16.10    3.10
   4  -2 -19   27.10    9.90
   3  -2 -19   46.70    9.20
   2  -2 -19    3.50    7.50
   1  -2 -19   30.00    8.40
   0  -2 -19   21.90   10.50
   0   2  19    2.30    4.80
  -1  -2 -19   21.70   20.30
   1   2  19   43.10    5.50
   2   2  19    1.80    2.80
   3  -3 -19   30.30    9.60
   2  -3 -19  -10.60   11.10
   1  -3 -19  133.39   18.80
  -1   3  19  168.38   18.20
   0  -3 -19  -14.10   24.10
  -1  -3 -19    7.90   16.10
  -2  -3 -19    0.40   11.90
   2   3  19    7.40    3.50
   2  -4 -19    5.30   11.00
  -2   4  19   -0.10    9.70
   1  -4 -19  154.88   24.60
  -1   4  19  189.18   18.40
  -1  -4 -19    2.60   11.80
   2   5 -20    2.30    3.20
  -2  -5  20   13.70    3.50
   1   5 -20   16.90    3.90
  -1  -5  20   18.50    3.50
   0   5 -20  206.18   12.70
   0  -5  20  187.58   12.00
  -1   5 -20   44.30    8.20
   1  -5  20   27.90    4.20
  -3  -4  20    1.20    3.70
   2   4 -20    7.40    3.50
  -2  -4  20   12.30    3.60
   1   4 -20   22.90    5.00
  -1  -4  20   37.10    5.10
   0   4 -20   15.00    4.30
   0  -4  20   11.30    3.30
  -1   4 -20   32.20    5.90
   1  -4  20   34.30    4.80
  -2   4 -20   25.50    8.00
   2  -4  20   30.30    4.30
   3   3 -20   15.10    6.20
  -3  -3  20   23.70    4.70
   2   3 -20   42.00    6.50
   1   3 -20   36.40    5.30
  -1  -3  20   29.00    4.30
   0   3 -20   39.10    5.90
   0  -3  20   32.80    4.70
  -1   3 -20   35.50    7.20
   1  -3  20   40.10    5.60
  -2   3 -20   19.80    9.50
   2  -3  20   33.30    4.30
   3   2 -20   10.80    6.10
  -3  -2  20   19.20    5.20
   2   2 -20   66.79    7.80
  -2  -2  20   61.09    6.90
   1   2 -20   47.90    6.50
  -1  -2  20   48.00    6.00
   0   2 -20   -2.70    3.70
   0  -2  20    2.60    3.40
  -1   2 -20  167.88   11.10
   1  -2  20  126.49    9.40
   2  -2  20    8.70    3.10
   3   1 -20   18.20    6.60
  -3  -1  20   28.00    6.60
   2   1 -20   -2.20    5.00
  -2  -1  20   -5.10    4.30
   1   1 -20   19.10    5.10
  -1  -1  20   19.80    4.50
   0   1 -20   86.69    8.70
   0  -1  20   63.09    6.80
  -1   1 -20  140.59   11.70
   1  -1  20   96.99    8.00
   2  -1  20   12.40    3.10
   3   0 -20   61.39   11.00
   2   0 -20   41.70    9.30
  -2   0  20   58.69    7.20
   1   0 -20  133.59   11.50
  -1   0  20  120.39   10.00
   0   0 -20    3.50    6.30
   0   0  20    1.20    3.60
   1   0  20   92.59    7.30
   2   0  20    4.70    2.80
   3  -1 -20   92.29   12.40
   2  -1 -20    2.60    6.40
   1  -1 -20   72.49   11.20
  -1   1  20   64.19    8.80
   0  -1 -20   -5.70    8.10
   0   1  20    2.60    4.40
   1   1  20    2.40    3.40
   2   1  20    0.30    2.80
   3  -2 -20    4.60    8.90
   2  -2 -20   22.60   10.20
   1  -2 -20   68.89   14.20
   0  -2 -20  100.69   20.00
   1   2  20   27.10    4.70
   2   2  20   36.80    5.10
   3  -3 -20    4.50    9.30
   2  -3 -20   32.00    9.80
   1   3  20   10.50    5.20
   2  -4 -20  178.28   22.00
   1  -4 -20   27.30   14.70
  -1   4  20   -0.80   12.00
   0   4  20   22.00   12.60
   1   5 -21   30.00    4.90
  -1  -5  21   43.80    5.10
   0   5 -21   30.60    4.80
   0  -5  21   28.60    4.40
   2   4 -21   18.10    3.90
  -2  -4  21   15.40    4.00
   1   4 -21  175.58   11.00
  -1  -4  21  186.68   11.40
   0   4 -21  110.09    8.30
   0  -4  21  105.69    7.90
   1  -4  21   13.70    3.30
   3   3 -21    3.70    6.00
  -3  -3  21    5.20    4.60
   2   3 -21   42.20    6.80
  -2  -3  21   41.20    5.20
   1   3 -21    7.20    3.70
  -1  -3  21    7.60    3.70
   0   3 -21   20.30    4.20
   0  -3  21   23.00    4.00
  -1   3 -21   42.20    7.50
   1  -3  21   34.70    5.00
   2  -3  21    6.20    3.30
   3   2 -21   68.19    9.90
  -3  -2  21   60.59    8.40
   2   2 -21    5.60    5.00
   1   2 -21   29.10    6.80
  -1  -2  21   12.10    4.10
   0   2 -21  121.29    9.30
   0  -2  21   99.49    8.20
  -1   2 -21   15.00    6.50
   1  -2  21   13.10    3.60
   2  -2  21   16.80    3.50
   3   1 -21   25.10    7.30
   2   1 -21   66.49    9.30
  -2  -1  21   62.99    8.30
   1   1 -21   22.00    5.70
  -1  -1  21   31.00    5.20
   0   1 -21  132.89   10.70
   0  -1  21   92.79    8.50
  -1   1 -21   31.90    8.20
   2  -1  21   17.10    3.30
   3   0 -21    8.20    7.20
   2   0 -21    7.40    6.30
  -2   0  21    9.30    6.70
   1   0 -21   71.69    9.80
  -1   0  21   52.39    6.80
   0   0 -21  135.69   12.70
   0   0  21  102.79    9.00
   1   0  21    6.20    3.50
   2   0  21   59.59    5.70
   3  -1 -21   11.20    7.70
   2  -1 -21  105.89   12.50
   1  -1 -21    8.90    7.50
  -1   1  21    6.70    6.30
   0  -1 -21   80.69   14.90
   0   1  21   49.80    7.40
   1   1  21    3.10    3.80
   2   1  21   47.00    5.50
   3  -2 -21   16.10    9.40
   2  -2 -21   28.70    9.40
   1  -2 -21   25.50   11.00
   0  -2 -21   26.70   20.90
   0   2  21    8.30    7.50
   1   2  21    3.90    4.20
   2  -3 -21   38.80   10.60
   1  -3 -21   35.00   11.90
   1   4 -22   85.79    7.10
  -1  -4  22   89.49    7.40
   0   4 -22   83.69    7.10
   0  -4  22   66.69    6.70
   2   3 -22   91.29    9.00
  -2  -3  22  100.79    8.40
   1   3 -22  148.79   10.00
  -1  -3  22  142.39   10.10
   0   3 -22   19.80    4.40
   0  -3  22    8.60    3.50
  -1   3 -22    2.30    5.30
   1  -3  22    7.80    3.20
   2   2 -22   32.00    6.20
  -2  -2  22   20.50    5.10
   1   2 -22    8.30    4.50
  -1  -2  22   10.10    4.40
   0   2 -22   47.60    7.80
  -1   2 -22   -1.80    6.30
   1  -2  22   12.70    3.70
   3   1 -22   -8.20    6.90
   2   1 -22   15.50    6.00
  -2  -1  22   10.60    5.90
   1   1 -22  172.48   13.50
  -1  -1  22  198.68   14.70
   0   1 -22   -0.90    8.00
   0  -1  22    3.80    3.80
  -1   1 -22   40.50   12.70
   1  -1  22   25.40    4.40
   3   0 -22   45.00    7.90
   2   0 -22   80.29   11.40
   1   0 -22   57.19   10.10
  -1   0  22   34.30    6.60
   0   0  22   24.50    4.90
   1   0  22   35.80    4.90
   2  -1 -22   20.90    7.90
   1  -1 -22  103.09   13.50
   0  -1 -22   18.80   11.90
   0   1  22   13.80    5.50
   1   1  22   40.70    6.20
   2  -2 -22   -9.60    9.30
   1  -2 -22   15.50   10.70
   1   3 -23   55.89    7.20
  -1  -3  23   39.20    5.40
   0   3 -23    9.90    4.80
   0  -3  23    7.30    3.70
   2   2 -23  109.19   10.60
  -2  -2  23   90.09    9.30
   1   2 -23   14.30    5.50
  -1  -2  23   12.90    4.40
   0   2 -23   16.20    5.60
   0  -2  23    6.30    3.90
   2   1 -23   18.40    6.60
  -2  -1  23   28.80    6.80
   1   1 -23   18.20    6.50
  -1  -1  23   21.20    5.20
   0   1 -23   15.50    7.20
   0  -1  23    8.60    4.10
   1  -1  23   32.70    4.70
   2   0 -23  109.19   12.70
   1   0 -23   12.90    7.40
  -1   0  23   18.90    6.10
   0   0 -23   85.99   14.60
   1  -1 -23   36.40    9.20
   0  -1 -23   83.89   21.10
   0   1  23   73.39    9.30

_computing_structure_solution     'SHELXT 2014/4 (Sheldrick, 2014)'
;
_shelx_hkl_checksum              74807
loop_
_space_group_symop_operation_xyz
'x, y, z'
'-x, -y, -z'
loop_
_atom_site_label
_atom_site_type_symbol
_atom_site_fract_x
_atom_site_fract_y
_atom_site_fract_z
_atom_site_U_iso_or_equiv
_atom_site_adp_type
_atom_site_occupancy
_atom_site_site_symmetry_order
_atom_site_calc_flag
O1 O 0.9488(3) 0.8654(2) 0.58701(9) 0.0157(2) Uani 1 1 d
C1 C 0.7387(4) 0.6969(3) 0.54726(11) 0.0098(2) Uani 1 1 d
N1 N 0.6250(3) 0.6882(2) 0.45355(9) 0.0094(2) Uani 1 1 d
H1N H 0.716(7) 0.803(5) 0.4256(19) 0.020(6) Uiso 1 1 d
C2 C 0.3930(4) 0.5045(3) 0.40155(11) 0.0090(2) Uani 1 1 d
C3 C 0.2738(4) 0.4932(3) 0.30840(11) 0.0096(2) Uani 1 1 d
H3 H 0.129(7) 0.350(6) 0.286(2) 0.033(8) Uiso 1 1 d
C4 C 0.3341(4) 0.6582(3) 0.23908(10) 0.0089(2) Uani 1 1 d
C5 C 0.5048(4) 0.8888(3) 0.24423(11) 0.0105(2) Uani 1 1 d
H5 H 0.618(6) 0.977(5) 0.2984(18) 0.017(6) Uiso 1 1 d
C6 C 0.4835(4) 0.9850(3) 0.15607(11) 0.0117(3) Uani 1 1 d
H6 H 0.593(7) 1.135(5) 0.1473(19) 0.022(6) Uiso 1 1 d
C7 C 0.2952(4) 0.8311(3) 0.08468(11) 0.0116(3) Uani 1 1 d
H7 H 0.245(6) 0.853(5) 0.0184(18) 0.017(6) Uiso 1 1 d
S1 S 0.14703(10) 0.56663(7) 0.12400(3) 0.01110(10) Uani 1 1 d
loop_
_atom_site_aniso_label
_atom_site_aniso_U_11
_atom_site_aniso_U_22
_atom_site_aniso_U_33
_atom_site_aniso_U_23
_atom_site_aniso_U_13
_atom_site_aniso_U_12
O1 0.0196(5) 0.0119(5) 0.0132(5) 0.0007(4) -0.0005(4) -0.0089(4)
C1 0.0098(5) 0.0084(6) 0.0109(6) 0.0002(5) 0.0020(4) -0.0018(4)
N1 0.0112(5) 0.0072(5) 0.0094(5) 0.0000(4) 0.0020(4) -0.0024(4)
C2 0.0087(5) 0.0067(5) 0.0112(6) -0.0001(4) 0.0026(4) -0.0012(4)
C3 0.0106(5) 0.0080(6) 0.0101(6) 0.0005(5) 0.0026(4) -0.0016(4)
C4 0.0093(5) 0.0080(6) 0.0090(6) -0.0005(4) 0.0018(4) -0.0009(4)
C5 0.0119(6) 0.0082(6) 0.0111(6) -0.0003(5) 0.0021(4) -0.0006(4)
C6 0.0127(6) 0.0085(6) 0.0140(6) 0.0020(5) 0.0025(5) -0.0006(5)
C7 0.0129(6) 0.0105(6) 0.0116(6) 0.0018(5) 0.0024(5) 0.0002(5)
S1 0.01315(16) 0.00880(16) 0.01035(16) 0.00009(11) 0.00044(11) -0.00257(11)
loop_
_atom_type_symbol
_atom_type_description
_atom_type_scat_dispersion_real
_atom_type_scat_dispersion_imag
_atom_type_scat_source
C C 0.0040 0.0020
'XDISP Program in WinGX L.Kissel & R.H.Pratt Acta Cryst A46 170 1990'
H H 0.0000 0.0000
'XDISP Program in WinGX L.Kissel & R.H.Pratt Acta Cryst A46 170 1990'
N N 0.0076 0.0040
'XDISP Program in WinGX L.Kissel & R.H.Pratt Acta Cryst A46 170 1990'
O O 0.0132 0.0074
'XDISP Program in WinGX L.Kissel & R.H.Pratt Acta Cryst A46 170 1990'
S S 0.1431 0.1480
'XDISP Program in WinGX L.Kissel & R.H.Pratt Acta Cryst A46 170 1990'
loop_
_geom_angle_atom_site_label_1
_geom_angle_atom_site_label_2
_geom_angle_atom_site_label_3
_geom_angle
_geom_angle_site_symmetry_3
O1 C1 N1 120.64(13) .
O1 C1 C2 121.76(14) 2_666
N1 C1 C2 117.59(12) 2_666
C1 N1 C2 125.26(13) .
C1 N1 H1N 115.1(18) .
C2 N1 H1N 119.5(18) .
C3 C2 N1 126.27(13) .
C3 C2 C1 116.58(12) 2_666
N1 C2 C1 117.15(13) 2_666
C2 C3 C4 131.50(13) .
C2 C3 H3 112.9(19) .
C4 C3 H3 115.6(19) .
C5 C4 C3 133.31(13) .
C5 C4 S1 109.80(11) .
C3 C4 S1 116.84(10) .
C4 C5 C6 112.88(13) .
C4 C5 H5 125.6(16) .
C6 C5 H5 121.5(16) .
C7 C6 C5 113.11(13) .
C7 C6 H6 123.5(16) .
C5 C6 H6 123.4(16) .
C6 C7 S1 111.41(12) .
C6 C7 H7 129.2(15) .
S1 C7 H7 119.4(15) .
C7 S1 C4 92.79(7) .
loop_
_geom_bond_atom_site_label_1
_geom_bond_atom_site_label_2
_geom_bond_distance
_geom_bond_site_symmetry_2
O1 C1 1.2357(18) .
C1 N1 1.362(2) .
C1 C2 1.482(2) 2_666
N1 C2 1.3976(18) .
N1 H1N 0.85(3) .
C2 C3 1.358(2) .
C2 C1 1.482(2) 2_666
C3 C4 1.441(2) .
C3 H3 0.94(3) .
C4 C5 1.385(2) .
C4 S1 1.7385(15) .
C5 C6 1.417(2) .
C5 H5 0.92(3) .
C6 C7 1.369(2) .
C6 H6 0.93(3) .
C7 S1 1.7039(15) .
C7 H7 0.97(2) .
loop_
_geom_hbond_atom_site_label_D
_geom_hbond_atom_site_label_H
_geom_hbond_atom_site_label_A
_geom_hbond_distance_DH
_geom_hbond_distance_HA
_geom_hbond_distance_DA
_geom_hbond_angle_DHA
_geom_hbond_site_symmetry_A
N1 H1N O1 0.85(3) 2.20(3) 2.9976(17) 156(2) 2_776
C5 H5 O1 0.92(3) 2.26(2) 3.1457(19) 161(2) 2_776
