#------------------------------------------------------------------------------
#$Date: 2017-09-26 01:54:40 +0300 (Tue, 26 Sep 2017) $
#$Revision: 201260 $
#$URL: file:///home/coder/svn-repositories/cod/cif/4/12/64/4126462.cif $
#------------------------------------------------------------------------------
#
# This file is available in the Crystallography Open Database (COD),
# http://www.crystallography.net/
#
# All data on this site have been placed in the public domain by the
# contributors.
#
data_4126462
loop_
_publ_author_name
'Liniger, Marc'
'Liu, Yiyang'
'Stoltz, Brian M.'
_publ_section_title
;
 Sequential Ruthenium Catalysis for Olefin Isomerization and Oxidation:
 Application to the Synthesis of Unusual Amino Acids.
;
_journal_name_full               'Journal of the American Chemical Society'
_journal_paper_doi               10.1021/jacs.7b08496
_journal_year                    2017
_chemical_formula_moiety         'C4 H11 N O2 S'
_chemical_formula_sum            'C4 H11 N O2 S'
_chemical_formula_weight         137.20
_space_group_crystal_system      orthorhombic
_space_group_IT_number           31
_space_group_name_Hall           'P 2ac -2'
_space_group_name_H-M_alt        'P m n 21'
_symmetry_space_group_name_Hall  'P 2ac -2'
_symmetry_space_group_name_H-M   'P m n 21'
_atom_sites_solution_hydrogens   difmap
_atom_sites_solution_primary     direct
_audit_creation_date             2014-09-08
_audit_creation_method
;
Olex2 1.2
(compiled 2014.08.28 svn.r2986 for OlexSys, GUI svn.r4874),
 SHELXL-2014,
 and manual edit
;
_cell_angle_alpha                90
_cell_angle_beta                 90
_cell_angle_gamma                90
_cell_formula_units_Z            2
_cell_length_a                   7.733(3)
_cell_length_b                   6.629(3)
_cell_length_c                   6.587(3)
_cell_measurement_reflns_used    2020
_cell_measurement_temperature    100
_cell_measurement_theta_max      36.85
_cell_measurement_theta_min      3.07
_cell_volume                     337.7(3)
_computing_cell_refinement       'SAINT V8.34A (Bruker-AXS, 2007)'
_computing_data_collection       'APEX2 2014.7-1 (Bruker-AXS, 2007)'
_computing_data_reduction        'SAINT V8.34A (Bruker-AXS, 2007)'
_computing_molecular_graphics    'DIAMOND 3 (Crystal Impact, 1999)'
_computing_publication_material  'Olex2 (Dolomanov et al., 2009)'
_computing_structure_refinement  'SHELXL-2014/6 (Sheldrick, 2014)'
_computing_structure_solution    'XT-2014/3 (Sheldrick, 2012)'
_diffrn_ambient_temperature      100
_diffrn_detector_area_resol_mean 8.33
_diffrn_measured_fraction_theta_full 1.000
_diffrn_measured_fraction_theta_max 0.979
_diffrn_measurement_device_type  'Bruker KAPPA APEX II ccd'
_diffrn_measurement_method       '\w and \f scans'
_diffrn_radiation_monochromator  graphite
_diffrn_radiation_type           MoK\a
_diffrn_radiation_wavelength     0.71073
_diffrn_reflns_av_R_equivalents  0.0420
_diffrn_reflns_av_unetI/netI     0.0448
_diffrn_reflns_Laue_measured_fraction_full 1.000
_diffrn_reflns_Laue_measured_fraction_max 0.979
_diffrn_reflns_limit_h_max       13
_diffrn_reflns_limit_h_min       -13
_diffrn_reflns_limit_k_max       11
_diffrn_reflns_limit_k_min       -9
_diffrn_reflns_limit_l_max       11
_diffrn_reflns_limit_l_min       -11
_diffrn_reflns_number            7315
_diffrn_reflns_point_group_measured_fraction_full 0.998
_diffrn_reflns_point_group_measured_fraction_max 0.958
_diffrn_reflns_theta_full        25.000
_diffrn_reflns_theta_max         39.756
_diffrn_reflns_theta_min         3.073
_diffrn_source                   'sealed tube'
_diffrn_source_current           30
_diffrn_source_power             1.5
_diffrn_source_target            Mo
_diffrn_source_voltage           50
_exptl_absorpt_coefficient_mu    0.397
_exptl_absorpt_correction_T_max  1.0000
_exptl_absorpt_correction_T_min  0.8998
_exptl_absorpt_correction_type   multi-scan
_exptl_absorpt_process_details
;
SADABS-2014/3 (Bruker,2014) was used for absorption correction.
wR2(int) was 0.0527 before and 0.0445 after correction.
The Ratio of minimum to maximum transmission is 0.8998.
The \l/2 correction factor is 0.00150.
;
_exptl_crystal_colour            colourless
_exptl_crystal_colour_primary    colourless
_exptl_crystal_density_diffrn    1.350
_exptl_crystal_description       plate
_exptl_crystal_F_000             148
_exptl_crystal_size_max          0.29
_exptl_crystal_size_mid          0.19
_exptl_crystal_size_min          0.02
_refine_diff_density_max         0.490
_refine_diff_density_min         -0.375
_refine_diff_density_rms         0.069
_refine_ls_abs_structure_details
;
 Flack x determined using 715 quotients [(I+)-(I-)]/[(I+)+(I-)]
 (Parsons, Flack and Wagner, Acta Cryst. B69 (2013) 249-259).
;
_refine_ls_abs_structure_Flack   0.07(4)
_refine_ls_extinction_method     none
_refine_ls_goodness_of_fit_ref   1.020
_refine_ls_hydrogen_treatment    refall
_refine_ls_matrix_type           full
_refine_ls_number_parameters     66
_refine_ls_number_reflns         2075
_refine_ls_number_restraints     1
_refine_ls_restrained_S_all      1.019
_refine_ls_R_factor_all          0.0477
_refine_ls_R_factor_gt           0.0347
_refine_ls_shift/su_max          0.000
_refine_ls_shift/su_mean         0.000
_refine_ls_structure_factor_coef Fsqd
_refine_ls_weighting_details
'w=1/[\s^2^(Fo^2^)+(0.0352P)^2^] where P=(Fo^2^+2Fc^2^)/3'
_refine_ls_weighting_scheme      calc
_refine_ls_wR_factor_gt          0.0660
_refine_ls_wR_factor_ref         0.0696
_reflns_Friedel_coverage         0.841
_reflns_Friedel_fraction_full    0.997
_reflns_Friedel_fraction_max     0.933
_reflns_number_gt                1770
_reflns_number_total             2075
_reflns_threshold_expression     'I > 2\s(I)'
_iucr_refine_instructions_details
;
TITL a14358_a.res in Pmn2(1)
CELL 0.71073 7.7329 6.6289 6.5866 90 90 90
ZERR 2 0.0031 0.0026 0.0026 0 0 0
LATT -1
SYMM 0.5-X,-Y,0.5+Z
SYMM 0.5+X,-Y,0.5+Z
SYMM -X,+Y,+Z
 
SFAC C H N O S
UNIT 8 22 2 4 2
EQIV $1 -0.5+X,1-Y,0.5+Z
 
L.S. 25
PLAN  20
SIZE 0.02 0.19 0.29
TEMP -173.15
HTAB N1 O1_$1
REM Old TITL a14358 in Pmn2(1)
BOND $H
conf
htab
wpdb -2
fmap -2
acta 50
REM <HKL>Z:/frames/bstoltz/a14358/work/a14358.hkl</HKL>
 
WGHT    0.035200
FVAR       0.52281
S1    5    0.500000    0.492457    0.520629    10.50000    0.00668    0.00855 =
         0.01072    0.00027    0.00000    0.00000
O1    4    0.660129    0.576041    0.443842    11.00000    0.01010    0.01301 =
         0.01710    0.00056    0.00345   -0.00318
N1    3    0.500000    0.529359    0.762746    10.50000    0.01160    0.01604 =
         0.01077   -0.00209    0.00000    0.00000
H1    2    0.404670    0.496082    0.823701    11.00000    0.02389
C1    1    0.500000    0.223989    0.468476    10.50000    0.01019    0.01010 =
         0.01212   -0.00088    0.00000    0.00000
C2    1    0.500000    0.201666    0.236991    10.50000    0.01323    0.01666 =
         0.01281   -0.00264    0.00000    0.00000
H2A   2    0.592946    0.264345    0.177456    11.00000    0.01805
H2B   2    0.500000    0.061747    0.206275    10.50000    0.03271
C3    1    0.336882    0.131118    0.561224    11.00000    0.01712    0.01279 =
         0.02090   -0.00019    0.00511   -0.00401
H3A   2    0.243769    0.187465    0.506775    11.00000    0.03527
H3B   2    0.337898    0.148191    0.710223    11.00000    0.02208
H3C   2    0.339495   -0.010506    0.538362    11.00000    0.02196
HKLF 4
 
REM  a14358_a.res in Pmn2(1)
REM R1 =  0.0347 for    1770 Fo > 4sig(Fo)  and  0.0477 for all    2075 data
REM     66 parameters refined using      1 restraints
 
END  
     
WGHT      0.0352      0.0000 

REM Instructions for potential hydrogen bonds
HTAB N1 O1_$1

REM Highest difference peak  0.490,  deepest hole -0.375,  1-sigma level  0.069
Q1    1   0.5833  0.5572  0.5162  11.00000  0.05    0.49
Q2    1   0.5000  0.1994  0.3415  10.50000  0.05    0.44
Q3    1   0.5000  0.5561  0.4830  10.50000  0.05   -0.38
Q4    1   0.5000  0.4394  0.5760  10.50000  0.05   -0.36
Q5    1   0.5000  0.5212  0.6604  10.50000  0.05    0.34
Q6    1   0.5000  0.5494  0.5665  10.50000  0.05   -0.34
Q7    1   0.3985  0.1751  0.5052  11.00000  0.05    0.34
Q8    1   0.5000 -0.1971  0.4663  10.50000  0.05   -0.33
Q9    1   0.5000  0.0867  0.7366  10.50000  0.05   -0.31
Q10   1   0.4613  0.4660  0.5171  11.00000  0.05   -0.30
Q11   1   0.5000  0.3481  0.4584  10.50000  0.05    0.30
Q12   1   0.5000  0.3920  0.5140  10.50000  0.05    0.29
Q13   1   0.5000  0.6668  0.4230  10.50000  0.05   -0.27
Q14   1   0.0000  0.1664  0.5166  10.50000  0.05   -0.27
Q15   1   0.5729  0.4618  0.3549  11.00000  0.05   -0.26
Q16   1   0.3323 -0.1318  0.5696  11.00000  0.05   -0.26
Q17   1   0.5000  0.2845 -0.0267  10.50000  0.05    0.26
Q18   1   0.4224  0.4587  0.6570  11.00000  0.05   -0.26
Q19   1   0.5000 -0.2105  0.2582  10.50000  0.05   -0.26
Q20   1   0.5000  0.1259  0.2470  10.50000  0.05    0.25

REM The information below was added by Olex2.
REM
REM R1 = 0.0347 for 1770 Fo > 4sig(Fo) and 0.0477 for all 7605 data
REM n/a parameters refined using n/a restraints
REM Highest difference peak 0.49, deepest hole -0.38
REM Mean Shift 0, Max Shift 0.000.

REM +++ Tabular Listing of Refinement Information +++
REM R1_all = 0.0477
REM R1_gt = 0.0347
REM wR_ref = 0.0696
REM GOOF = 1.020
REM Shift_max = 0.000
REM Shift_mean = 0
REM Reflections_all = 7605
REM Reflections_gt = 1770
REM Parameters = n/a
REM Hole = -0.38
REM Peak = 0.49
REM Flack = 0.07(4)

;
_cod_data_source_file            ja7b08496_si_006.cif
_cod_data_source_block           a14358
_cod_original_cell_volume        337.6(2)
_cod_database_code               4126462
_shelxl_version_number           2014/6
_shelx_space_group_comment
;
The symmetry employed for this shelxl refinement is uniquely defined
by the following loop, which should always be used as a source of
symmetry information in preference to the above space-group names.
They are only intended as comments.
;
_shelx_estimated_absorpt_t_max   0.992
_shelx_estimated_absorpt_t_min   0.894
_refine_ls_abs_structure_hooft   0.08(4)
_olex2_refinement_description
;
;
_olex2_submission_special_instructions 'No special instructions were received'
loop_
_space_group_symop_operation_xyz
'x, y, z'
'-x+1/2, -y, z+1/2'
'x+1/2, -y, z+1/2'
'-x, y, z'
loop_
_atom_site_label
_atom_site_type_symbol
_atom_site_fract_x
_atom_site_fract_y
_atom_site_fract_z
_atom_site_U_iso_or_equiv
_atom_site_adp_type
_atom_site_occupancy
_atom_site_site_symmetry_order
_atom_site_calc_flag
_atom_site_refinement_flags_posn
_atom_site_refinement_flags_adp
_atom_site_refinement_flags_occupancy
S1 S 0.5000 0.49246(7) 0.52063(10) 0.00865(8) Uani 1 2 d S T P
O1 O 0.66013(13) 0.57604(17) 0.44384(17) 0.0134(2) Uani 1 1 d . . .
N1 N 0.5000 0.5294(3) 0.7627(3) 0.0128(3) Uani 1 2 d S T P
H1 H 0.405(3) 0.496(3) 0.824(5) 0.024(6) Uiso 1 1 d . . .
C1 C 0.5000 0.2240(3) 0.4685(3) 0.0108(3) Uani 1 2 d S T P
C2 C 0.5000 0.2017(4) 0.2370(3) 0.0142(4) Uani 1 2 d S T P
H2A H 0.593(3) 0.264(3) 0.177(3) 0.018(6) Uiso 1 1 d . . .
H2B H 0.5000 0.062(6) 0.206(6) 0.033(10) Uiso 1 2 d S T P
C3 C 0.3369(2) 0.1311(2) 0.5612(2) 0.0169(3) Uani 1 1 d . . .
H3A H 0.244(3) 0.187(3) 0.507(5) 0.035(6) Uiso 1 1 d . . .
H3B H 0.338(4) 0.148(4) 0.710(4) 0.022(6) Uiso 1 1 d . . .
H3C H 0.339(3) -0.011(3) 0.538(5) 0.022(6) Uiso 1 1 d . . .
loop_
_atom_site_aniso_label
_atom_site_aniso_U_11
_atom_site_aniso_U_22
_atom_site_aniso_U_33
_atom_site_aniso_U_23
_atom_site_aniso_U_13
_atom_site_aniso_U_12
S1 0.00668(13) 0.00855(16) 0.01072(14) 0.00027(18) 0.000 0.000
O1 0.0101(4) 0.0130(5) 0.0171(5) 0.0006(4) 0.0035(4) -0.0032(4)
N1 0.0116(7) 0.0160(9) 0.0108(7) -0.0021(6) 0.000 0.000
C1 0.0102(7) 0.0101(8) 0.0121(8) -0.0009(6) 0.000 0.000
C2 0.0132(8) 0.0167(10) 0.0128(8) -0.0026(7) 0.000 0.000
C3 0.0171(6) 0.0128(6) 0.0209(8) -0.0002(5) 0.0051(5) -0.0040(5)
loop_
_atom_type_symbol
_atom_type_description
_atom_type_scat_dispersion_real
_atom_type_scat_dispersion_imag
_atom_type_scat_source
C C 0.0033 0.0016 'International Tables Vol C Tables 4.2.6.8 and 6.1.1.4'
H H 0.0000 0.0000 'International Tables Vol C Tables 4.2.6.8 and 6.1.1.4'
N N 0.0061 0.0033 'International Tables Vol C Tables 4.2.6.8 and 6.1.1.4'
O O 0.0106 0.0060 'International Tables Vol C Tables 4.2.6.8 and 6.1.1.4'
S S 0.1246 0.1234 'International Tables Vol C Tables 4.2.6.8 and 6.1.1.4'
loop_
_geom_angle_atom_site_label_1
_geom_angle_atom_site_label_2
_geom_angle_atom_site_label_3
_geom_angle
_geom_angle_site_symmetry_1
_geom_angle_site_symmetry_3
O1 S1 O1 117.58(10) . 4_655
O1 S1 N1 106.69(6) 4_655 .
O1 S1 N1 106.69(6) . .
O1 S1 C1 108.03(6) . .
O1 S1 C1 108.03(6) 4_655 .
N1 S1 C1 109.65(9) . .
S1 N1 H1 114.8(19) . .
C2 C1 S1 106.47(14) . .
C3 C1 S1 108.62(11) . .
C3 C1 S1 108.62(11) 4_655 .
C3 C1 C2 111.00(12) . .
C3 C1 C2 111.00(12) 4_655 .
C3 C1 C3 110.98(18) 4_655 .
C1 C2 H2A 112.4(13) . .
C1 C2 H2B 108(2) . .
H2A C2 H2B 110.6(19) . .
C1 C3 H3A 109.8(16) . .
C1 C3 H3B 110.1(16) . .
C1 C3 H3C 108.4(16) . .
H3A C3 H3B 111(2) . .
H3A C3 H3C 112(2) . .
H3B C3 H3C 106(2) . .
loop_
_geom_bond_atom_site_label_1
_geom_bond_atom_site_label_2
_geom_bond_distance
_geom_bond_site_symmetry_2
S1 O1 1.4478(11) .
S1 O1 1.4478(11) 4_655
S1 N1 1.6134(19) .
S1 C1 1.812(2) .
N1 H1 0.87(2) .
C1 C2 1.532(3) .
C1 C3 1.531(2) 4_655
C1 C3 1.531(2) .
C2 H2A 0.92(2) .
C2 H2B 0.95(4) .
C3 H3A 0.89(3) .
C3 H3B 0.99(2) .
C3 H3C 0.95(2) .
loop_
_geom_hbond_atom_site_label_D
_geom_hbond_atom_site_label_H
_geom_hbond_atom_site_label_A
_geom_hbond_distance_DH
_geom_hbond_distance_HA
_geom_hbond_distance_DA
_geom_hbond_angle_DHA
_geom_hbond_site_symmetry_A
N1 H1 O1 0.87(2) 2.10(2) 2.9696(17) 174(3) 3_465
loop_
_geom_torsion_atom_site_label_1
_geom_torsion_atom_site_label_2
_geom_torsion_atom_site_label_3
_geom_torsion_atom_site_label_4
_geom_torsion
_geom_torsion_site_symmetry_1
_geom_torsion_site_symmetry_4
O1 S1 C1 C2 64.09(6) 4_655 .
O1 S1 C1 C2 -64.09(6) . .
O1 S1 C1 C3 55.51(14) . 4_655
O1 S1 C1 C3 -176.31(11) 4_655 4_655
O1 S1 C1 C3 176.31(11) . .
O1 S1 C1 C3 -55.51(14) 4_655 .
N1 S1 C1 C2 180.000(0) . .
N1 S1 C1 C3 60.40(11) . .
N1 S1 C1 C3 -60.40(11) . 4_655
loop_
_refln_index_h
_refln_index_k
_refln_index_l
_refln_F_squared_meas
_refln_F_squared_sigma
1 0 0 -0.04 0.19
1 0 0 -0.42 0.16
1 0 0 -0.14 0.21
2 0 0 303.12 4.68
2 0 0 306.68 4.69
-2 0 0 315.5 4.57
3 0 0 -0.67 0.41
-3 0 0 -1 0.25
3 0 0 -0.7 0.41
-4 0 0 83.98 1.47
4 0 0 84.24 1.73
-4 0 0 85.77 1.96
-5 0 0 -0.48 0.28
-5 0 0 -0.62 0.67
5 0 0 0.57 0.53
6 0 0 504.72 8.07
-6 0 0 510.45 8.38
-6 0 0 506.88 7.64
7 0 0 -0.83 0.66
-7 0 0 0.27 0.95
-7 0 0 0.29 0.39
8 0 0 80.1 2.24
-8 0 0 82.1 2.71
9 0 0 -0.58 0.84
-9 0 0 0.89 1.23
10 0 0 26.36 1.8
-10 0 0 30.75 2.44
-11 0 0 -2.22 1.6
11 0 0 -0.61 1.13
12 0 0 86.45 3.07
-12 0 0 85.21 4.04
13 0 0 -0.82 1.29
-13 0 0 -2.34 2.01
0 1 0 552.25 8.16
0 -1 0 544.99 8.04
0 1 0 546.24 8.06
-1 1 0 151.95 2.37
1 1 0 147.99 2.38
-1 -1 0 156 2.41
1 -1 0 147.78 2.36
1 1 0 154.64 2.35
2 1 0 224.37 3.39
-2 -1 0 236.26 3.59
2 1 0 238.82 3.57
2 1 0 224.13 3.61
-2 1 0 225.74 3.64
2 1 0 235.25 3.61
2 -1 0 230.69 3.61
3 1 0 43.08 1.1
-3 1 0 39.37 1.14
-3 -1 0 40.49 0.96
3 1 0 39.06 1
3 -1 0 40.76 1.05
4 1 0 73.15 1.56
-4 -1 0 73.68 1.45
4 -1 0 72.01 1.61
4 1 0 75.15 1.64
-4 1 0 75.02 1.77
5 -1 0 16 0.94
-5 1 0 15.35 1.16
5 1 0 17.39 0.89
5 1 0 16.83 0.99
-5 1 0 17.56 0.51
-5 -1 0 17.59 0.74
-6 -1 0 112.68 2.8
-6 1 0 116.26 2.73
6 1 0 117.91 2.42
-6 -1 0 116.72 2.15
-6 1 0 112.42 1.87
7 1 0 9.33 0.93
-7 1 0 7.77 1.14
-7 -1 0 10.06 0.82
8 -1 0 46.26 1.77
8 1 0 44.61 1.7
-8 -1 0 44.18 2.19
-8 1 0 46.4 2.17
-9 -1 0 5.68 1.39
9 -1 0 5.18 1.07
9 1 0 3.3 0.99
-9 1 0 7.21 1.51
10 1 0 22.11 1.71
10 -1 0 20.51 1.75
-10 1 0 25.96 2.29
-10 -1 0 24.47 2.22
11 -1 0 3.96 1.3
-11 -1 0 6.1 1.97
-11 1 0 6.5 1.96
11 1 0 2.75 1.19
-12 -1 0 29.53 2.84
-12 1 0 28.67 2.8
12 1 0 29.1 2.16
12 -1 0 27.52 2.2
-13 -1 0 -0.66 2.11
13 1 0 1.06 1.36
-13 1 0 -1.9 2.01
13 -1 0 1.57 1.47
0 2 0 303.09 4.6
0 2 0 317.51 4.78
-1 -2 0 235.82 3.77
1 -2 0 235.3 3.66
1 2 0 233.42 3.61
1 2 0 239.13 3.74
-1 2 0 236.9 3.64
-1 2 0 239.74 3.74
2 2 0 54.03 1.22
-2 2 0 53.93 1.18
2 -2 0 53.3 1.18
-2 -2 0 54.56 1.25
2 2 0 54.3 1.16
-2 2 0 55.53 1.25
-3 -2 0 125.74 2.24
3 -2 0 121.76 2.23
-3 2 0 121.07 2.27
3 2 0 120.3 2.25
3 2 0 122.17 2.21
4 2 0 19.57 0.82
4 -2 0 18.47 0.94
-4 -2 0 19.56 0.87
4 2 0 18.02 0.95
-4 2 0 20.18 1.04
5 2 0 24.13 1.12
-5 2 0 26.86 1.29
-5 -2 0 24.92 1
5 2 0 26.04 1.01
5 -2 0 23.65 1.11
6 2 0 89.03 2.15
-6 -2 0 89.62 1.97
6 -2 0 87.52 2.17
-6 2 0 87.71 2.36
6 2 0 89.72 2.02
-7 -2 0 29.08 1.77
7 -2 0 30.09 1.51
7 2 0 31.02 1.35
-7 -2 0 31.66 1.27
-7 2 0 29.66 1.82
-8 -2 0 21.63 1.92
8 -2 0 23.29 1.56
-8 2 0 25.1 1.96
8 2 0 23.63 1.39
-9 2 0 10.95 1.66
9 2 0 12.38 1.16
-9 -2 0 11.57 1.57
9 -2 0 11.37 1.34
-10 2 0 9.1 1.77
10 2 0 9.41 1.25
10 -2 0 8.81 1.4
-10 -2 0 9.99 1.84
-11 2 0 2.99 1.73
-11 -2 0 3.11 1.84
11 -2 0 4.54 1.33
11 2 0 2.33 1.11
-12 -2 0 17.67 2.48
12 2 0 20.43 1.8
12 -2 0 16.64 1.89
-12 2 0 17.72 2.39
-13 2 0 5.69 2.18
-13 -2 0 2.88 2.25
13 2 0 8.02 1.52
13 -2 0 6.3 1.66
0 3 0 695.06 10.37
0 3 0 684.72 10.12
-1 3 0 86.66 1.72
-1 -3 0 84.8 1.77
1 3 0 84.06 1.7
-1 3 0 82.69 1.54
1 3 0 84.32 1.5
1 -3 0 83.2 1.59
-2 3 0 163.69 2.9
2 3 0 160.95 2.72
-2 -3 0 164.04 2.94
2 -3 0 165.62 2.81
-2 3 0 166.59 2.76
2 3 0 165.12 2.89
-3 -3 0 2.01 0.58
-3 3 0 2.5 0.55
-3 3 0 2.22 0.55
3 -3 0 1.1 0.48
3 3 0 1 0.49
3 3 0 2.18 0.48
4 3 0 123.77 2.37
-4 3 0 119.61 2.39
-4 -3 0 118.29 2.42
4 -3 0 116.86 2.39
4 3 0 121.27 2.24
4 3 0 120.78 2.43
5 -3 0 9.83 0.88
-5 -3 0 10 0.85
-5 3 0 11.22 0.98
5 3 0 10.25 0.84
5 3 0 11.32 0.87
6 3 0 166.57 3.26
6 -3 0 162.22 3.31
-6 -3 0 163.72 3.2
6 3 0 164.88 3.11
-6 3 0 164.85 3.4
7 -3 0 12.31 1.11
7 3 0 14.34 1.04
-7 3 0 14.16 1.38
8 3 0 55.06 1.84
8 -3 0 57.26 2.1
-8 -3 0 51.76 2.43
-8 3 0 58.38 2.33
-9 -3 0 1.8 1.33
9 3 0 -0.28 0.83
-9 3 0 0.31 1.34
9 -3 0 1.3 1.06
10 -3 0 32.63 2.13
-10 3 0 33.4 2.56
10 3 0 32.62 1.84
-10 -3 0 30.09 2.7
11 3 0 2.48 1.15
-11 3 0 2.44 1.73
11 -3 0 2.66 1.3
-11 -3 0 1.7 1.84
-12 3 0 35.31 3.04
12 3 0 37.8 2.25
-12 -3 0 36.05 3.29
12 -3 0 43.29 2.6
-13 -3 0 1.6 2.14
13 3 0 3.47 1.36
-13 3 0 -0.72 3.23
13 -3 0 3.13 1.68
0 4 0 60.89 1.52
0 4 0 62.1 1.17
-1 4 0 0.09 0.27
1 4 0 0.16 0.31
1 4 0 0.11 0.49
-1 4 0 0.44 0.5
-2 4 0 254.03 4.06
2 4 0 244.55 4.01
-2 4 0 252.26 4.29
2 -4 0 252.82 4.14
2 4 0 253.15 4.28
3 -4 0 61.2 1.56
-3 -4 0 63.02 1.71
3 4 0 61.41 1.62
-3 4 0 61.37 1.65
3 4 0 59.53 1.46
-3 4 0 62.57 1.46
4 4 0 188.55 3.58
-4 -4 0 194.7 3.63
4 4 0 192.04 3.42
-4 4 0 194.01 3.43
-4 4 0 188.55 3.6
4 -4 0 191.99 3.51
-5 4 0 2.18 0.81
5 4 0 2.25 0.57
-5 4 0 1.91 0.76
5 4 0 2.71 0.72
5 4 0 1.15 0.69
-5 -4 0 1.44 0.76
5 -4 0 3.05 0.78
6 4 0 26.52 1.22
-6 4 0 26.38 1.53
-6 4 0 24.02 1.47
6 -4 0 26.88 1.44
6 4 0 26.95 1.42
7 -4 0 -0.6 0.86
-7 4 0 -0.84 1
8 4 0 67.38 2.02
-8 4 0 67.3 2.48
-8 -4 0 63.07 2.72
8 -4 0 67.17 2.34
9 4 0 14.71 1.28
-9 -4 0 16.69 1.92
-9 4 0 13.72 1.68
9 -4 0 14.1 1.49
-10 4 0 61.45 2.86
-10 -4 0 62.26 3.25
10 -4 0 61.42 2.63
10 4 0 62.05 2.27
11 4 0 2.44 1.16
-11 4 0 3.46 2.1
11 -4 0 1.27 1.43
-11 -4 0 2.86 1.85
12 4 0 10.66 1.47
12 -4 0 8.27 1.73
-12 4 0 12.45 1.87
-12 -4 0 9.79 2.4
0 5 0 13.25 0.93
0 5 0 9.44 0.56
-1 5 0 4.32 0.39
-1 5 0 4.97 0.76
1 5 0 4.71 0.44
1 5 0 4.81 0.74
-2 5 0 45.78 1.5
2 5 0 44.97 1.17
-2 5 0 44.11 1.17
2 5 0 44.86 1.52
3 -5 0 62.39 1.69
3 5 0 59.73 1.78
-3 5 0 57.65 1.8
-3 5 0 61.59 1.49
3 5 0 59.74 1.51
4 5 0 31.23 1.47
4 5 0 35.03 1.32
-4 5 0 36.78 2.29
-4 5 0 34.92 1.26
4 -5 0 33.19 1.44
-5 5 0 1.29 0.85
5 5 0 0.56 0.77
5 5 0 0.65 0.57
-5 5 0 1.26 0.78
5 -5 0 0.79 0.92
5 5 0 0.33 0.71
-6 5 0 8.98 1.12
6 5 0 12.27 0.92
-6 5 0 12.15 1.15
6 5 0 10.34 1.03
6 -5 0 11.31 1.18
7 5 0 1.56 0.71
-7 5 0 1.76 1.01
7 -5 0 2.01 1.07
-7 5 0 1.18 1.01
-8 5 0 15.3 1.53
-8 -5 0 16.81 1.86
8 5 0 15.17 1.14
-8 5 0 13.2 1.47
8 -5 0 13.96 1.49
9 5 0 17.14 1.31
-9 5 0 19.69 1.77
9 -5 0 16.1 1.62
-9 -5 0 15.66 2.03
10 -5 0 15.13 1.71
-10 5 0 15.44 1.86
10 5 0 15.43 1.83
-10 -5 0 13.88 2.21
-11 5 0 -1.32 1.46
-11 -5 0 1.37 1.89
11 -5 0 -0.88 1.41
-12 -5 0 3.26 2.09
-12 5 0 4.22 1.77
12 -5 0 1.91 1.54
0 6 0 13.79 1.04
0 6 0 13.93 0.66
-1 6 0 2.63 0.39
1 6 0 1.39 0.43
1 6 0 2.67 0.77
-1 6 0 1.59 0.76
-2 6 0 53.92 1.2
2 6 0 54.55 1.36
3 6 0 16.2 1.01
3 6 0 16.15 1.35
-3 6 0 16.04 1.36
-3 6 0 15.86 0.9
4 6 0 63.91 2.07
4 6 0 64.96 1.76
4 -6 0 65.31 1.99
-4 6 0 62.46 2.12
5 6 0 2.46 0.95
-5 6 0 2.62 1.01
5 6 0 2.9 0.66
5 -6 0 1.37 0.94
5 6 0 2.54 0.82
6 6 0 8.8 1.04
6 6 0 11.2 1.27
6 -6 0 9.65 1.23
6 6 0 10.28 0.89
-6 6 0 11.04 1.29
7 -6 0 1.07 1.14
-7 6 0 -0.44 1.11
-8 6 0 22.74 1.84
8 -6 0 17.12 1.61
-8 -6 0 22.01 2.14
-9 -6 0 5.28 1.84
9 -6 0 5.02 1.46
-9 6 0 5.03 1.52
-10 -6 0 28.46 2.62
-10 6 0 28.28 2.18
10 -6 0 21.61 1.98
-11 6 0 0.44 1.59
-11 -6 0 -0.35 1.97
11 -6 0 0.45 1.52
0 7 0 6.91 1.01
1 7 0 -0.55 0.8
-1 7 0 -1.31 0.78
2 7 0 116.04 2.88
-2 7 0 113.55 2.85
-3 7 0 2.34 0.97
3 7 0 1.61 0.96
4 7 0 103.95 2.85
-4 7 0 103.52 2.88
5 7 0 0.32 1.05
5 -7 0 0.13 1.06
-5 7 0 0.22 1.05
5 7 0 0.04 0.88
6 7 0 5.17 1.25
6 -7 0 7.98 1.32
-6 7 0 8.21 1.42
7 -7 0 1.23 1.29
-7 7 0 0.18 1.32
-8 7 0 43.09 2.61
8 -7 0 40.14 2.41
-8 -7 0 45.09 2.83
9 -7 0 2.41 1.43
-9 7 0 1.46 1.53
-9 -7 0 1.19 1.78
-10 7 0 41.24 2.83
-10 -7 0 44.87 3.35
10 -7 0 39.53 2.67
-11 -7 0 -2.64 1.99
11 -7 0 -0.9 1.62
0 8 0 21.81 1.74
-1 8 0 8.63 1.22
1 8 0 9.92 1.29
-2 8 0 16.8 1.45
2 8 0 20.48 1.57
-3 8 0 2.38 1.14
3 8 0 1.64 1.11
4 8 0 18.54 1.64
-4 8 0 15.41 1.57
5 8 0 5 1.35
-5 8 0 6.41 1.4
-6 8 0 15.09 1.73
6 8 0 13.79 1.66
-7 8 0 9.49 1.74
-8 8 0 12.71 1.81
8 -8 0 7.68 1.68
-8 -8 0 15.31 2.03
-9 -8 0 0.28 1.84
-9 8 0 2.03 1.72
9 -8 0 3 1.58
10 -8 0 5.96 1.71
-10 -8 0 10.8 2.3
0 9 0 2.48 1.21
1 9 0 5.24 1.29
-1 9 0 4.54 1.26
-2 9 0 8.12 1.42
2 9 0 10.59 1.49
3 9 0 11.01 1.55
-3 9 0 13.07 1.57
4 9 0 11.01 1.61
-4 9 0 8.88 1.54
-5 9 0 3.66 1.46
5 9 0 1.45 1.39
6 9 0 1.57 1.46
-6 9 0 0.13 1.44
-7 9 0 3.64 1.66
-8 9 0 5.67 1.75
0 10 0 11.11 1.62
-1 10 0 -1.94 1.24
1 10 0 1.82 1.37
2 10 0 15.96 1.76
-2 10 0 17.62 1.8
-3 10 0 -0.6 1.33
3 10 0 0.63 1.39
4 10 0 10.36 1.72
-4 10 0 11.49 1.77
-5 10 0 2.71 1.56
5 10 0 0.81 1.52
-6 10 0 9.92 1.83
6 10 0 3.71 1.63
-7 10 0 -1.85 1.76
0 11 0 26.65 2.16
1 11 0 7.99 1.64
-1 11 0 8.92 1.66
2 11 0 6.9 1.67
-2 11 0 4.6 1.57
3 11 0 0.68 1.55
-3 11 0 1.76 1.54
-4 11 0 6.37 1.7
4 11 0 4.29 1.68
0 0 -1 2.46 0.16
0 0 1 2.66 0.32
0 0 -1 2.42 0.26
1 0 -1 950.82 14.16
1 0 1 962.93 14.13
1 0 1 946.36 14.25
-1 0 1 1000 14.78
-2 0 1 1.34 0.53
2 0 1 1.58 0.4
2 0 1 1.56 0.36
2 0 -1 1.08 0.33
3 0 1 17.78 0.79
3 0 -1 16.35 0.66
3 0 -1 16.94 0.76
3 0 1 17.93 0.72
-3 0 1 16.32 0.95
4 0 -1 0.33 0.44
4 0 1 0.06 0.49
-4 0 1 -0.21 0.63
4 0 1 0.14 0.42
4 0 -1 0.5 0.35
5 0 -1 197.97 3.49
-5 0 1 197.27 3.77
-5 0 -1 200.86 3.27
5 0 1 200.27 3.52
5 0 1 197.92 3.47
5 0 -1 196.79 3.31
-6 0 -1 -0.15 0.41
6 0 -1 1.54 0.61
-6 0 1 1.3 0.81
6 0 1 0.78 0.61
6 0 1 0.7 0.57
7 0 1 165.3 3.31
-7 0 -1 166.5 3.69
-7 0 -1 165.95 2.9
-8 0 -1 -0.58 1.06
8 0 1 0.15 0.79
-8 0 1 0.76 1.09
8 0 -1 0.99 0.75
9 0 1 3.55 1.03
-9 0 -1 5.15 1.39
-9 0 1 3.48 1.37
9 0 -1 5.75 0.98
-10 0 -1 1.83 1.52
-10 0 1 -1.32 1.46
10 0 1 -0.6 0.96
10 0 -1 0.05 0.95
11 0 1 33.72 2.08
-11 0 1 36.22 3.01
-11 0 -1 34.4 2.95
11 0 -1 30.78 2.05
12 0 1 0.74 1.26
-12 0 -1 2.41 2.02
-12 0 1 -0.97 1.95
12 0 -1 -1.37 1.19
13 0 -1 35.01 2.44
-13 0 -1 35.87 3.47
-13 0 1 36.56 3.18
13 0 1 37.73 2.53
0 1 1 51.58 0.89
0 1 1 51.26 1.09
0 -1 -1 51.03 0.95
0 -1 1 49.92 0.87
0 1 -1 49.11 0.98
1 1 -1 253.01 3.91
1 -1 1 253.25 3.93
1 -1 1 260.5 3.81
-1 -1 -1 259.7 3.8
1 1 -1 256.89 3.84
-1 1 1 257.01 4.01
1 -1 -1 255.08 3.91
-1 -1 1 252.6 3.94
1 1 1 256.66 3.77
1 1 1 254.36 3.92
1 -1 -1 261.28 3.85
-1 1 -1 252.82 3.91
1 1 1 251.76 3.84
2 -1 1 78.18 1.54
-2 -1 -1 84.34 1.57
-2 1 1 85.76 1.69
2 -1 1 83.22 1.48
2 1 -1 81.18 1.55
2 1 -1 81.68 1.39
2 1 1 81.32 1.55
2 1 1 82.79 1.42
-2 -1 1 81.45 1.66
2 -1 -1 82.6 1.53
2 -1 -1 83.76 1.26
2 -1 -1 83.5 1.51
-3 1 1 210.86 3.59
3 -1 1 210.34 3.37
-3 -1 -1 210.32 3.4
3 -1 1 201.76 3.42
3 1 -1 204.82 3.22
3 1 1 211.21 3.33
-3 -1 1 212.39 3.59
3 1 1 208.44 3.43
3 -1 -1 203.66 3.37
3 -1 -1 207.88 3.41
4 -1 1 44.84 1.25
4 1 -1 48.9 1.25
-4 -1 -1 46.61 1.17
4 1 -1 45.23 1
-4 1 1 45.79 1.48
4 -1 1 46.46 1.22
4 1 1 45.48 1.15
4 1 1 47.78 1.28
4 -1 -1 46.46 1.19
4 -1 -1 48.41 1.25
-4 -1 1 47.53 1.5
5 -1 1 91.36 2.01
5 1 -1 89.11 1.96
5 1 -1 90.84 1.69
-5 -1 -1 91.59 1.84
-5 1 1 92.46 2.24
5 1 1 90.06 1.9
-5 -1 1 90.5 2.26
5 1 1 91.65 2.04
5 -1 -1 89.18 1.88
5 -1 -1 92.03 1.99
-5 1 -1 90.71 2.14
6 1 -1 3.22 0.65
-6 -1 -1 4.77 0.58
6 -1 1 3.6 0.71
-6 1 1 4.42 0.98
6 1 1 3.72 0.65
6 1 1 3.29 0.71
-6 -1 1 3.95 0.98
6 -1 -1 3.44 0.68
-6 1 -1 3.37 0.88
-7 1 1 65.08 2.34
-7 -1 -1 65.78 1.6
-7 -1 1 64.99 2.76
7 1 1 64.08 2.14
-7 1 -1 65.71 2.26
7 1 1 63.88 1.84
-7 1 -1 65.08 1.39
7 -1 -1 63.75 2.12
-8 -1 -1 5.74 1.25
-8 -1 -1 6.83 0.73
-8 1 1 6.81 1.31
8 1 -1 6.78 1
8 -1 1 7.67 1.03
8 -1 -1 4.14 0.89
-8 1 -1 5.48 1.28
-8 -1 1 6.98 1.3
8 1 1 6.46 0.9
9 -1 1 32.4 1.8
9 1 -1 33.28 1.7
-9 -1 -1 30.22 2.22
-9 1 1 33.38 2.34
-9 -1 1 31.91 2.29
-9 1 -1 32.21 2.32
9 -1 -1 30.31 1.71
9 1 1 31.43 1.67
10 1 -1 8.12 1.19
-10 -1 -1 7.3 1.73
-10 1 1 7.25 1.74
10 -1 1 6.52 1.22
-10 -1 1 6.34 1.68
10 -1 -1 7.19 1.22
-10 1 -1 4.3 1.67
10 1 1 7.11 1.16
11 -1 1 18.87 1.71
-11 1 1 20.3 2.32
11 1 -1 21.42 1.7
-11 -1 -1 22.33 2.32
11 -1 -1 20.32 1.76
11 1 1 19.36 1.62
-11 1 -1 20.8 2.26
-11 -1 1 16.51 2.25
12 1 -1 1.39 1.25
-12 1 1 -0.44 1.85
12 -1 1 1.47 1.35
-12 -1 -1 1.1 1.99
-12 -1 1 0.64 2.01
-12 1 -1 0.12 1.95
12 -1 -1 1.45 1.28
12 1 1 -0.17 1.24
13 1 -1 18.2 1.81
-13 -1 -1 14.21 2.5
13 -1 1 14.42 1.89
-13 1 1 12.3 2.51
13 -1 -1 14.91 1.83
-13 1 -1 13.19 2.43
13 1 1 16.8 1.82
-13 -1 1 11.13 2.44
0 2 -1 343.03 5.39
0 -2 -1 348.39 5.27
0 2 1 345.17 5.43
0 2 1 359.4 5.33
0 2 1 359.43 5.32
0 -2 -1 353.79 5.38
-1 -2 -1 238.36 3.81
-1 2 1 239.45 3.82
-1 -2 -1 238.76 3.56
-1 2 1 244.23 3.72
1 2 -1 235.76 3.77
1 -2 1 237.38 3.76
1 2 1 237.1 3.72
1 -2 -1 242.65 3.68
1 2 1 239.83 3.7
-1 2 -1 229.05 3.46
-1 2 -1 227.34 3.46
1 -2 -1 236.83 3.72
1 -2 -1 239.29 3.62
-1 2 -1 235.38 3.78
2 -2 1 57.42 1.31
2 2 -1 58.18 1.05
-2 -2 -1 59.08 1.35
2 2 -1 59.19 1.32
-2 -2 -1 62.2 0.95
-2 2 1 58.63 1.38
2 2 1 57.38 1.24
-2 2 -1 57.26 1.12
2 -2 -1 58.09 1.28
2 2 1 59.6 1.06
2 -2 -1 58.81 1.21
-2 2 -1 58.44 1.33
2 2 1 58.79 1.27
3 -2 1 83.91 1.75
-3 -2 -1 83.26 1.27
3 2 -1 83.28 1.76
-3 2 1 88.18 1.87
-3 -2 -1 83.52 1.75
3 2 -1 81.47 1.41
3 2 1 87.56 1.54
3 2 1 87.94 1.74
3 -2 -1 84.17 1.68
-3 2 -1 79.37 1.63
3 -2 -1 83.92 1.71
3 2 1 84.3 1.67
-4 2 1 41.27 1.42
4 -2 1 41.08 1.26
-4 -2 -1 42.41 1.22
4 2 -1 42.01 0.86
-4 -2 1 42.08 1.47
4 2 1 42.19 1.07
4 -2 -1 42.35 1.22
4 2 1 42.63 1.27
4 -2 -1 42.56 1.22
-4 2 -1 42.54 1.25
5 -2 1 67.41 1.75
5 2 -1 67.24 1.64
-5 2 1 65.58 1.92
5 2 -1 63.89 1.26
-5 -2 -1 69.39 1.64
5 2 1 67.99 1.55
-5 2 -1 67.11 1.77
5 2 1 69.9 1.76
-5 -2 1 67.48 2
5 -2 -1 65.15 1.68
-6 2 1 36.67 1.7
6 -2 1 35.14 1.46
-6 -2 -1 35.52 1.27
6 2 -1 36.6 1.33
6 -2 -1 35.56 1.39
-6 -2 1 34.91 1.73
-6 2 -1 34.36 1.58
6 2 1 34.51 1.25
6 2 1 34.33 1.44
-7 2 1 55.61 2.27
7 -2 1 56.01 1.91
-7 -2 -1 55.1 1.62
7 -2 -1 51.64 1.79
-7 2 -1 54.67 2.07
7 2 1 56.2 1.84
-7 -2 1 51.48 2.19
7 2 1 57.7 1.67
-8 -2 -1 2.17 0.73
-8 2 1 3.97 1.26
8 2 -1 1.97 0.79
8 -2 1 2.79 0.99
-8 2 -1 2.12 1.18
-8 -2 1 3.32 1.19
8 -2 -1 3.89 0.93
8 2 1 2.63 0.88
8 2 1 2.78 0.84
9 -2 1 24.01 1.76
-9 -2 -1 21.71 1.89
-9 -2 -1 20.25 1.51
9 2 -1 21.55 1.53
-9 2 1 22.53 2.19
9 2 1 21.48 1.47
-9 2 -1 21.82 1.89
9 -2 -1 20.75 1.64
-9 -2 1 21.53 1.98
-10 -2 -1 9.37 1.73
10 2 -1 6.98 1.19
10 -2 1 6.82 1.39
-10 2 1 7.61 1.72
-10 -2 1 10.61 1.9
-10 2 -1 8.11 1.76
10 2 1 9.28 1.23
10 -2 -1 9.33 1.38
11 2 -1 17.32 1.63
-11 2 1 19.86 2.38
11 -2 1 16.8 1.68
-11 -2 -1 17.82 2.23
11 -2 -1 15.62 1.65
-11 2 -1 15.65 2.09
11 2 1 19.37 1.61
-11 -2 1 16.27 2.23
-12 2 1 5.27 2.12
12 -2 1 3.73 1.52
12 2 -1 4.96 1.37
-12 -2 -1 4.73 2.12
12 -2 -1 4.9 1.46
12 2 1 6.21 1.35
-12 -2 1 7.69 2.25
-12 2 -1 5.01 1.98
13 2 -1 13.16 1.72
-13 2 1 11.01 2.33
13 -2 1 13.62 1.88
-13 -2 -1 15.81 2.55
-13 2 -1 10.33 2.28
-13 -2 1 8.19 2.51
13 -2 -1 12.01 1.85
13 2 1 11.76 1.67
0 3 -1 91.37 1.84
0 3 1 92.66 1.75
0 -3 -1 90.7 1.65
0 3 1 93.08 1.67
0 -3 -1 92.53 1.83
-1 3 1 197.46 3.24
-1 -3 -1 189.88 3
-1 3 1 192.42 3.28
1 3 -1 189.61 2.97
-1 -3 -1 196.83 3.33
1 3 -1 191.97 3.29
1 -3 -1 197.01 3.22
1 -3 -1 196.76 3.06
-1 3 -1 193.62 3.3
1 3 1 195.45 3.22
1 -3 -1 192.81 3.18
1 3 1 191.62 3.15
-2 3 1 5.56 0.61
-2 -3 -1 4.66 0.61
2 3 -1 5.32 0.6
2 3 -1 5.33 0.35
2 3 -1 5.14 0.44
2 -3 1 5.06 0.62
-2 3 1 5.68 0.57
2 -3 -1 4.63 0.53
2 -3 -1 4.67 0.48
2 3 1 4.09 0.48
2 3 1 5.52 0.56
-2 3 -1 4.43 0.57
-2 3 -1 4.55 0.43
3 3 -1 33.37 0.7
-3 3 1 35.24 1.12
3 3 -1 32.75 1.13
3 -3 1 32.8 1.14
-3 3 1 35.76 1.2
-3 -3 -1 35 1.21
3 3 1 33.57 1.09
3 3 1 32.98 1.08
3 -3 -1 32.22 1.13
3 3 1 33.51 0.83
-3 3 -1 34.59 0.94
3 -3 -1 33.2 1.03
-3 3 -1 34.05 1.18
4 -3 1 6.89 0.75
4 3 -1 8.27 0.39
-4 3 1 9.19 0.88
4 3 -1 11.28 0.85
-4 -3 -1 8.62 0.77
-4 3 -1 10.01 0.82
4 -3 -1 8.68 0.72
-4 3 -1 7.98 0.76
4 3 1 9.28 0.63
4 3 1 10.16 0.77
4 3 1 10.37 0.75
5 -3 1 86.43 2.1
-5 -3 -1 85.21 2.05
-5 3 1 86.43 2.23
5 3 -1 86.39 1.95
5 3 -1 85.16 1.42
-5 -3 1 83.31 2.31
5 -3 -1 86.71 2.04
5 3 1 85.14 1.79
5 3 1 84.75 2.03
-5 3 -1 85.41 2.02
6 3 -1 12.91 0.93
-6 3 1 14.12 1.27
-6 -3 -1 12.35 0.97
6 -3 1 11.37 1.16
6 3 1 12.11 1.03
-6 3 -1 13.04 1.13
-6 -3 1 15.24 1.39
6 -3 -1 11.88 0.99
6 3 1 11.22 0.93
7 3 -1 64.26 1.87
7 -3 1 62.06 2.06
-7 -3 -1 63.5 1.88
-7 -3 1 64.77 2.43
7 -3 -1 62.54 2.02
-7 3 -1 63.18 2.16
7 3 1 63.64 1.78
7 3 1 64.47 2.03
8 3 -1 0.05 0.73
8 -3 1 0.98 0.92
-8 -3 -1 0.23 0.9
-8 3 1 0.64 1.21
-8 3 -1 0.33 1.15
-8 -3 1 -0.12 1.18
8 3 1 1.09 0.74
8 3 1 0.19 0.85
8 -3 -1 1.07 0.92
-9 -3 -1 15.38 1.85
9 -3 1 11.9 1.36
9 3 -1 15.2 1.3
-9 3 1 16.83 1.9
-9 -3 -1 13.63 1.2
9 -3 -1 14.7 1.47
-9 -3 1 12.88 1.8
-9 3 -1 13.95 1.69
9 3 1 14.3 1.21
10 -3 1 0.66 1.25
-10 3 1 -0.05 1.53
-10 -3 -1 1.7 1.51
10 3 -1 0.86 0.99
-10 -3 1 0.41 1.65
10 3 1 1.84 0.97
-10 3 -1 1.04 1.49
10 -3 -1 0.77 1.19
-11 -3 -1 25.4 2.46
-11 3 1 25.19 2.33
11 3 -1 24.13 1.94
11 -3 1 24.86 1.97
-11 -3 1 24.61 2.57
11 -3 -1 25.11 2.12
-11 3 -1 27.51 2.39
11 3 1 25.45 1.91
-12 -3 -1 1.48 1.93
-12 3 1 1.87 1.88
12 -3 1 2.45 1.59
12 3 -1 2.15 1.24
12 -3 -1 3.15 1.49
-12 -3 1 -1.43 1.91
-12 3 -1 2.25 2.8
12 3 1 0.25 1.17
-13 3 1 12.67 2.3
13 -3 1 13.09 2.02
-13 -3 -1 10.77 2.47
13 3 -1 13.66 1.74
13 -3 -1 15.88 1.92
-13 -3 1 10.7 2.5
0 -4 -1 5.53 0.69
0 4 1 5.25 0.58
0 4 -1 4.36 0.26
0 4 1 5.38 0.47
0 4 -1 4.91 0.65
1 4 -1 44.36 1.34
1 4 -1 41.85 0.87
-1 4 1 43.14 1.24
-1 4 1 43.42 1.23
-1 -4 -1 44.61 1.37
-1 4 -1 43 1.32
1 -4 -1 44.81 1.03
1 4 1 44.74 1.1
-1 4 -1 41.51 0.71
1 4 1 42.63 1.21
2 4 -1 42.58 1.37
-2 4 1 43.9 1.3
-2 4 1 42.92 1.29
2 -4 1 43.56 1.31
-2 -4 -1 44.72 1.42
2 4 -1 43.26 1.04
2 -4 -1 46.78 1.15
2 4 1 43.98 1.27
-2 4 -1 41.94 0.87
2 4 1 41.77 1.16
-2 4 -1 43.92 1.38
-3 4 1 210.14 3.7
3 4 -1 209.05 3.47
-3 4 1 206.66 3.7
-3 -4 -1 213.48 3.82
3 -4 1 206.65 3.71
3 4 -1 207.28 3.77
3 4 -1 207.84 3.2
-3 4 -1 206.14 3.35
-3 4 -1 208.4 3.78
3 4 1 206.2 3.67
3 4 1 203.14 3.59
3 -4 -1 210.73 3.57
3 4 1 213.26 3.32
-4 4 1 46.73 1.53
4 4 -1 49.63 1.58
-4 4 1 48.41 1.6
-4 -4 -1 45.36 1.59
4 -4 1 47.33 1.57
4 4 -1 45.66 0.83
4 -4 -1 50.12 1.45
4 4 1 47.09 1.44
4 4 1 47.09 1.48
4 4 1 46.49 1.15
-4 4 -1 48.18 1.29
-4 4 -1 47.25 1.61
-5 4 1 47.4 1.74
-5 4 1 45.31 1.66
-5 -4 -1 44.21 1.65
5 -4 1 46.15 1.68
5 4 -1 46.29 1.65
5 4 1 45.31 1.54
-5 4 -1 46.43 1.72
-5 4 -1 46.8 1.46
5 4 1 47.56 1.25
5 4 1 46.32 1.57
5 -4 -1 45.1 1.55
-6 4 1 2.86 1.02
6 -4 1 0.58 0.88
-6 4 1 1.51 0.81
6 4 -1 1.04 0.68
-6 4 -1 2.52 0.87
6 4 1 2.18 0.6
6 4 1 1.98 0.93
-6 -4 1 2.14 1.09
6 -4 -1 3.95 1.35
-6 4 -1 0.89 0.85
-7 -4 -1 21.15 1.49
7 4 -1 21.7 1.35
7 -4 1 21.34 1.6
-7 4 1 22.04 2.16
7 -4 -1 20.95 1.51
-7 4 -1 18.82 1.56
7 4 1 21.13 1.55
7 4 1 18.25 1.15
-7 -4 1 20.24 1.94
-7 4 -1 22.99 1.58
-8 -4 -1 10.71 1.2
8 -4 1 7.58 1.25
8 4 -1 8.99 1.03
-8 4 1 9.59 1.43
8 4 1 9.21 0.94
-8 -4 1 9.37 1.54
-8 4 -1 8.23 1.3
-8 4 -1 8.83 1.66
8 4 1 7.53 1.17
8 -4 -1 8.89 1.28
9 4 -1 64.3 2.2
-9 4 1 60.57 2.69
9 -4 1 60.33 2.5
-9 4 -1 56.28 2.46
9 -4 -1 60.66 2.44
9 4 1 60.98 2.03
-9 4 -1 55.63 2.52
-9 -4 1 58.51 2.96
-10 -4 -1 14.15 1.99
10 4 -1 13.73 1.37
-10 4 1 11.9 1.83
10 -4 1 14.12 1.7
10 4 1 12.51 1.24
-10 -4 1 15.19 2.15
10 -4 -1 9.05 1.48
-10 4 -1 15.48 1.76
11 4 -1 17.66 1.6
-11 4 1 14.89 2.09
-11 -4 -1 20.38 2.34
11 -4 1 17.92 1.84
11 -4 -1 19.47 1.87
-11 -4 1 20.92 2.54
-11 4 -1 16.35 1.92
-12 -4 -1 0.05 1.89
-12 4 1 1.07 1.56
12 4 -1 -0.5 1.17
12 -4 1 2.02 1.62
-12 4 1 0.69 1.85
-12 -4 1 0.12 2.11
-12 4 -1 2.77 1.62
12 -4 -1 1.32 1.44
0 5 -1 20.58 0.47
0 5 -1 22.66 1.18
0 5 1 22.17 0.84
0 5 1 22.12 1.09
1 5 -1 49.91 1.59
1 5 -1 49.12 1
-1 -5 -1 48.43 1.62
-1 5 1 52.63 1.24
-1 5 1 50.02 1.5
1 5 1 51.14 1.48
1 5 1 51.76 1.27
-1 5 -1 49.15 1.58
-2 5 1 35.22 1.24
-2 5 1 36.2 1.35
2 5 -1 32.86 1.4
2 5 -1 34.75 0.97
-2 -5 -1 37.43 1.53
-2 5 -1 32.96 1.38
-2 5 -1 34.22 0.72
2 -5 -1 36.1 1.14
2 5 1 33.43 1.13
2 5 1 34.19 1.3
3 5 -1 59.69 1.43
-3 -5 -1 60.65 1.94
-3 5 1 57.99 1.75
3 -5 1 61.3 1.77
-3 5 1 61.64 1.7
3 5 -1 56.78 1.8
3 5 -1 60.42 1.15
3 5 1 59.24 1.56
3 5 1 59.71 1.72
-3 5 -1 55.76 1.2
3 -5 -1 60.18 1.57
-3 5 -1 58.59 1.82
4 -5 1 34.21 1.53
4 5 -1 33.75 1.96
-4 5 1 30.68 1.45
-4 5 1 30.91 1.41
-4 5 -1 32.72 2.02
4 5 1 32.39 1.33
4 5 1 33.24 1.43
4 5 1 33.44 1
-4 5 -1 33.81 1.08
4 -5 -1 34.85 1.39
5 -5 1 36.57 1.66
-5 5 1 35.66 1.59
-5 -5 -1 34.19 1.72
-5 5 1 35.48 1.64
5 5 -1 34.63 1.67
-5 5 -1 35.26 1.69
5 5 1 36.48 1.12
5 5 1 36.36 1.56
5 5 1 36.97 1.53
5 -5 -1 38.67 1.56
6 -5 1 2.59 1.05
6 5 -1 4.07 0.97
-6 5 1 3.52 0.98
-6 -5 -1 3.72 1.02
-6 5 1 5.14 1.09
6 5 1 5.12 0.66
6 5 1 4.75 0.94
-6 -5 1 5.11 1.22
6 -5 -1 3.31 0.99
-6 5 -1 4.37 1.07
7 5 -1 27.45 1.49
-7 5 1 27.58 1.81
-7 -5 -1 28.47 1.77
7 -5 1 28.57 1.89
-7 5 1 27.89 1.84
7 -5 -1 27.65 1.71
-7 -5 1 23.86 2.17
7 5 1 26.13 1.69
7 5 1 24.99 1.25
-7 5 -1 25.7 1.82
-8 5 1 9.36 1.45
8 -5 1 9.26 1.38
-8 5 1 10.18 1.39
8 5 -1 11.15 1.13
-8 5 -1 11.7 1.47
-8 -5 1 11.37 1.75
8 5 1 12.66 1.32
8 -5 -1 8.61 1.28
9 5 -1 19.97 1.62
-9 5 1 18.3 1.74
9 -5 1 18.2 1.74
-9 5 1 17.95 1.72
-9 -5 1 23.78 2.32
9 -5 -1 20.88 1.72
-9 5 -1 25.44 1.93
10 -5 1 11.25 1.73
-10 -5 -1 11.87 2.05
10 5 -1 11.6 1.32
-10 5 1 11.02 2.78
-10 5 1 12.43 1.72
-10 5 -1 11.81 1.76
10 -5 -1 11.35 1.64
-10 -5 1 14.26 2.26
-11 -5 -1 10.32 2.21
11 -5 1 9.2 1.76
-11 5 1 8.26 1.75
11 5 -1 13.21 1.5
-11 5 -1 7.66 1.74
11 -5 -1 9.23 1.69
-11 -5 1 11.47 2.33
-12 -5 -1 2.48 2.04
-12 5 1 2.22 1.63
12 -5 1 2.19 1.64
-12 5 -1 1.1 1.71
12 -5 -1 0.46 1.42
-12 -5 1 -0.42 2.07
0 6 1 8.89 0.65
0 6 1 9.57 0.94
-1 6 1 20.47 1.25
-1 6 1 22.87 0.92
1 6 -1 21.75 1.79
1 6 1 22 0.96
-1 6 -1 22.19 1.72
1 6 1 20.07 1.27
2 6 -1 0.62 0.8
-2 6 1 0.49 0.79
-2 6 1 1.01 0.51
2 6 1 -0.78 0.68
2 6 1 0.79 0.54
-2 6 -1 0 0.77
3 6 -1 63.54 2.06
-3 -6 -1 64.99 2.14
-3 6 1 61.15 1.74
-3 6 1 56.5 1.92
3 6 1 62.75 1.67
3 6 1 59.51 1.92
3 -6 -1 65.78 1.76
-4 -6 -1 1.03 0.97
-4 6 1 -0.92 0.78
4 -6 1 1.02 0.98
-4 6 1 1.42 0.75
4 6 -1 0.76 0.83
4 6 1 -0.24 0.7
-4 6 -1 0.42 0.88
4 -6 -1 1.37 0.8
4 6 1 0.39 0.83
-5 6 1 20.53 1.6
-5 -6 -1 20.68 1.69
-5 6 1 23.39 1.44
5 6 -1 19.57 1.64
5 -6 1 21.77 1.65
5 -6 -1 20.96 1.47
5 6 1 20.6 1.39
-5 6 -1 20.62 1.67
5 6 1 18.75 1.53
6 6 -1 5.9 0.88
-6 6 1 5.53 1.04
6 -6 1 4.54 1.19
6 6 -1 6.22 1.15
-6 6 1 6.34 1.17
6 6 1 6.88 1.14
6 -6 -1 6.04 1.13
-6 6 -1 5.63 1.2
6 6 1 4.23 1
-6 -6 1 8.73 1.46
7 6 -1 8.62 1.01
-7 6 1 9.5 1.39
7 -6 1 8.29 1.35
7 6 1 9.85 1.21
-7 -6 1 10.54 1.64
-7 6 -1 8.03 1.39
7 -6 -1 7.43 1.25
8 6 -1 0.16 0.87
-8 6 1 -0.81 1.15
8 -6 1 2.21 1.34
-8 6 -1 -0.99 1.24
-8 -6 1 1.94 1.59
8 6 1 0.12 1.03
8 -6 -1 -0.49 1.17
-9 6 1 25.25 1.95
9 -6 1 22.35 1.92
9 6 -1 23.13 1.91
-9 -6 1 25.47 2.48
-9 6 -1 21.27 2.03
9 -6 -1 18.59 1.75
-10 -6 -1 4.2 1.88
10 -6 1 0.27 1.4
-10 6 1 -0.37 1.43
-10 6 -1 1.6 1.54
10 -6 -1 0.68 1.35
-10 -6 1 0.29 1.87
11 -6 1 8.2 1.73
-11 -6 -1 12.28 2.25
-11 6 1 9.29 1.82
-11 6 -1 8.56 1.81
-11 -6 1 10.31 2.41
11 -6 -1 7.89 1.7
0 7 1 5.59 0.78
0 7 1 4.96 0.91
0 7 -1 6.2 1.05
1 7 -1 15.09 1.28
-1 7 1 15.8 1.39
1 7 1 13.74 0.95
1 7 1 15.68 1.37
-1 7 -1 13.05 1.22
-2 7 1 5.23 0.95
2 7 -1 5.04 1.03
2 7 1 3.2 0.66
-2 7 -1 4.44 1.05
2 7 1 3.99 0.94
3 7 -1 121.99 3.07
-3 7 1 120.57 2.98
-3 7 -1 118.83 3.07
3 7 1 123.45 2.99
3 7 1 120.64 2.56
-4 7 1 3.51 1.06
4 7 -1 2.99 1.09
-4 7 -1 4.17 1.14
4 7 1 4.5 1.04
5 7 -1 16.83 1.55
-5 7 1 20.83 1.61
-5 7 -1 17.37 1.58
5 7 1 15.38 1.19
5 -7 -1 16.8 1.35
5 7 1 17.89 1.51
6 7 -1 4.09 1.24
6 -7 1 1.28 1.32
-6 7 1 2.19 1.24
6 7 1 3.5 1.17
-6 7 -1 3.86 1.33
-6 -7 1 3.68 1.39
6 -7 -1 3.62 1.17
6 7 1 3.23 0.99
-7 7 1 8.06 1.5
7 -7 1 7.41 1.47
7 -7 -1 8.78 1.37
7 7 1 6.53 1.15
-7 -7 1 9.1 1.71
-7 7 -1 7.78 1.55
-8 7 1 3.21 1.47
8 -7 1 0.93 1.41
8 -7 -1 3.46 1.35
-8 7 -1 3.28 1.55
-8 -7 1 3.73 1.74
-9 7 1 49.23 2.77
9 -7 1 46.18 2.7
9 -7 -1 44.6 2.48
-9 -7 1 43.77 3.14
-9 7 -1 46.39 2.79
-10 -7 -1 4.22 1.93
-10 7 1 -2.69 1.51
10 -7 1 1.57 1.51
10 -7 -1 1.27 1.48
-10 -7 1 4.76 2.05
-10 7 -1 1.47 1.58
-11 -7 1 9.02 2.63
11 -7 -1 5.41 1.75
0 8 1 23.14 1.68
0 8 -1 21.73 1.81
-1 8 1 29.13 1.78
1 8 -1 28.18 1.91
1 8 1 28.74 1.82
-1 8 -1 29.7 1.91
2 8 -1 10.13 1.32
-2 8 1 10.86 1.28
-2 8 -1 7.65 1.28
2 8 1 11.05 1.32
3 8 -1 21.98 1.7
-3 8 1 22.85 1.78
-3 8 -1 21.69 1.88
3 8 1 24.4 1.81
4 8 -1 7.32 1.35
-4 8 1 5.77 1.3
4 8 1 5.66 1.24
-4 8 -1 4.11 1.3
-5 8 1 21.67 1.75
5 8 -1 22.04 1.86
-5 8 -1 21.18 1.81
5 8 1 24.14 1.81
-6 8 1 15.13 1.72
6 8 -1 17.16 1.79
-6 8 -1 13.72 1.75
6 8 1 14.18 1.63
-7 8 1 18.01 1.96
7 -8 -1 15.12 1.99
-7 8 -1 15.71 1.9
-7 -8 1 20.05 2.39
-8 8 1 8.79 1.79
8 -8 -1 6.3 1.62
-8 8 -1 8.41 1.85
-8 -8 1 7.02 2
-9 -8 -1 17.01 2.14
-9 8 1 11.34 1.88
-9 8 -1 11.13 1.97
9 -8 -1 12.1 1.92
-9 -8 1 12.43 2.22
-10 -8 -1 6.31 2.17
-10 -8 1 -0.1 2.26
0 9 1 31.41 2.03
0 9 -1 28.91 2.16
1 9 -1 6.54 1.39
-1 9 1 6.6 1.28
-1 9 -1 4.96 1.35
1 9 1 7.4 1.35
2 9 -1 -1.65 1.19
-2 9 1 -0.31 1.07
-2 9 -1 -1.32 1.17
2 9 1 0.66 1.12
-3 9 1 14.84 1.57
3 9 -1 20.2 1.82
-3 9 -1 21.32 1.89
3 9 1 23.07 1.8
-4 9 1 0.21 1.2
4 9 -1 -0.97 1.29
4 9 1 1.53 1.29
-4 9 -1 1.13 1.35
-5 9 1 5.85 1.5
5 9 -1 5.86 1.53
5 9 1 4.14 1.46
-5 9 -1 4.79 1.55
6 9 -1 20.12 2
-6 9 1 20.32 2
6 9 1 20.37 1.93
-6 9 -1 19.93 2.04
-7 9 1 2.75 1.56
-7 9 -1 4.08 1.74
-8 9 1 0.15 1.6
-8 9 -1 0.82 1.64
0 10 -1 4.46 1.49
0 10 1 4.16 1.38
-1 10 1 9.85 1.5
1 10 -1 12.04 1.7
1 10 1 9.13 1.52
-1 10 -1 10.73 1.64
2 10 -1 1.86 1.45
-2 10 1 -0.39 1.2
2 10 1 0.59 1.3
-2 10 -1 -1.3 1.32
3 10 -1 12.02 1.73
-3 10 1 12.28 1.65
-3 10 -1 12.07 1.77
3 10 1 15.28 1.74
-4 10 1 1.46 1.34
4 10 -1 -0.08 1.5
-4 10 -1 0.2 1.51
4 10 1 1.41 1.4
5 10 -1 4.01 1.67
-5 10 1 5.26 1.57
5 10 1 8.04 1.66
-5 10 -1 6.13 1.68
6 10 -1 3.05 1.72
-6 10 1 1.86 1.51
-6 10 -1 2.46 1.63
6 10 1 2.38 1.57
-7 10 1 3.85 1.88
0 11 1 10.62 1.67
0 11 -1 12.12 1.77
-1 11 1 19.49 1.93
1 11 -1 17.56 2
1 11 1 16.78 1.81
-1 11 -1 17.23 1.98
2 11 -1 1.41 1.56
-2 11 1 2.3 1.44
-2 11 -1 0.62 1.5
2 11 1 1.81 1.43
3 11 -1 2.98 1.66
-3 11 1 2.09 1.41
3 11 1 3.01 1.53
-3 11 -1 2.62 1.66
-4 11 1 2.43 1.49
4 11 -1 0.13 1.57
4 11 1 2.49 1.61
-4 11 -1 -1.24 1.49
0 0 2 508.29 7.58
0 0 -2 499.2 7.29
0 0 -2 497.41 7.48
1 0 2 1.16 0.37
-1 0 -2 0.22 0.37
-1 0 2 1.16 0.52
1 0 -2 0.98 0.38
2 0 -2 8.11 0.62
-2 0 2 9.38 0.83
2 0 2 8.97 0.65
2 0 2 8.7 0.6
-3 0 2 2.26 0.66
3 0 2 1.1 0.48
3 0 2 0.62 0.44
3 0 -2 0.1 0.39
4 0 2 7.39 0.66
4 0 -2 6.41 0.53
4 0 -2 5.94 0.66
-4 0 2 9.35 0.9
4 0 2 7.19 0.6
5 0 2 -0.1 0.56
5 0 -2 0.12 0.43
5 0 2 -0.1 0.5
-5 0 2 -0.58 0.74
5 0 -2 -0.14 0.53
6 0 2 117.9 2.47
6 0 -2 113.11 2.26
-6 0 2 113.21 2.87
6 0 2 115.1 2.51
6 0 -2 114.3 2.48
-7 0 2 1.94 1.05
-7 0 -2 -1.09 0.49
7 0 -2 0.09 0.58
7 0 2 -0.35 0.71
7 0 -2 0.35 0.74
7 0 2 0.41 0.72
-8 0 -2 9.54 0.83
-8 0 -2 11.07 1.42
-8 0 2 11.04 1.48
8 0 2 12 1.14
8 0 -2 10.72 1.08
-9 0 -2 1.82 1.32
-9 0 2 0.96 1.41
9 0 2 -0.68 0.92
9 0 -2 0.65 0.93
10 0 2 3.76 1.12
-10 0 2 2.2 1.65
10 0 -2 4.66 1.17
-10 0 -2 5.04 1.69
11 0 -2 -0.21 1.08
11 0 2 0.54 1.11
-11 0 -2 0.91 1.76
-11 0 2 -0.51 1.82
12 0 2 22.21 1.88
-12 0 -2 25.57 2.66
12 0 -2 25.19 2.14
-12 0 2 18.87 2.52
-13 0 -2 0.85 2.07
-13 0 2 0.34 2.22
13 0 2 0.72 1.37
13 0 -2 3.31 1.4
0 1 -2 241.33 3.66
0 -1 -2 241.29 3.7
0 1 -2 239.3 3.73
0 1 2 243.8 3.9
0 -1 2 229.03 3.68
0 1 2 235.03 3.5
-1 -1 -2 22.87 0.69
1 1 -2 21.54 0.69
1 -1 2 21.9 0.66
-1 1 2 21.21 0.95
1 1 -2 20.85 0.74
1 -1 -2 22.18 0.78
-1 1 -2 20.65 0.67
-1 -1 2 21.16 0.81
1 1 2 20.48 0.78
2 -1 2 70.4 1.36
2 1 -2 68.05 1.41
2 -1 2 68.86 1.46
-2 1 2 72.29 1.63
2 1 -2 69.36 1.35
-2 -1 -2 69.79 1.28
2 -1 -2 72.19 1.39
2 -1 -2 68.33 1.44
2 1 2 68.48 1.46
2 1 2 71.2 1.28
-2 -1 2 71.92 1.6
3 -1 2 48.59 1.27
3 -1 2 50.74 1.21
3 1 -2 50.11 1.11
-3 1 2 52.43 1.52
3 -1 -2 49.21 1.23
-3 -1 2 52.39 1.49
3 1 2 50.44 1.11
3 1 2 50.64 1.29
3 -1 -2 51.44 1.24
-4 1 2 64.12 1.8
4 -1 2 62.77 1.54
4 -1 2 64.62 1.5
4 1 -2 59.85 1.31
4 1 2 64.53 1.55
4 -1 -2 63.44 1.51
4 1 2 64.63 1.4
-4 -1 2 63.43 1.77
4 -1 -2 59.75 1.45
-5 -1 -2 1.03 0.53
5 -1 2 2.17 0.62
5 -1 2 1.46 0.6
-5 1 2 2.43 0.84
5 1 -2 1.51 0.42
5 1 -2 0.93 0.57
5 1 2 1.42 0.63
-5 -1 2 2.78 0.81
5 1 2 1.5 0.51
5 -1 -2 0.73 0.57
5 -1 -2 2.17 0.53
6 1 -2 61.25 1.72
6 1 -2 59 1.42
6 -1 2 56.6 1.66
6 -1 2 59.62 1.74
-6 -1 -2 60.58 1.6
-6 1 2 57.87 2.07
-6 -1 2 60.75 2.05
6 1 2 60.66 1.62
6 1 2 56.03 1.78
6 -1 -2 59.83 1.61
6 -1 -2 57.5 1.69
7 1 -2 2.65 0.59
7 1 -2 3.24 0.78
-7 1 2 2.47 1.11
-7 -1 -2 2.84 0.67
7 -1 2 2.51 0.86
7 -1 -2 3.09 0.72
-7 -1 2 2.38 1.04
7 -1 -2 1.71 0.74
7 1 2 2.11 0.79
-7 1 -2 2.43 1.03
7 1 2 3.1 0.76
8 1 -2 18.46 1.38
-8 1 2 21.72 1.99
8 -1 2 25 1.58
-8 -1 -2 23.75 1.22
8 1 2 23.17 1.41
8 -1 -2 23.65 1.46
-8 -1 2 22.03 1.99
-8 1 -2 24.01 1.93
8 1 2 20.66 1.48
-9 -1 -2 5.35 1.2
-9 -1 -2 4.44 1.42
9 -1 2 4.41 1.13
9 1 -2 3.39 0.96
-9 1 2 3.58 1.42
9 -1 -2 5.49 1.07
9 1 2 5.23 1.03
-9 -1 2 5.8 1.55
-9 1 -2 6.61 1.5
10 1 -2 17.25 1.5
-10 -1 -2 18.32 2.1
-10 1 2 15.25 1.97
10 -1 2 17.56 1.55
10 -1 -2 18.55 1.59
-10 -1 2 15.11 2.1
-10 1 -2 17.9 2.04
10 1 2 16.78 1.51
11 -1 2 0.54 1.25
11 1 -2 0.21 1.13
-11 -1 -2 1.02 1.77
-11 1 2 0.88 1.86
11 1 2 0.99 1.1
11 -1 -2 0.74 1.16
-11 1 -2 2.07 1.76
-11 -1 2 0.8 1.78
-12 -1 -2 15.7 2.39
-12 1 2 14.08 2.49
12 1 -2 15.18 1.76
12 -1 2 12.71 1.73
-12 -1 2 15.91 2.61
-12 1 -2 14.48 2.33
12 -1 -2 14.47 1.75
12 1 2 14.24 1.63
13 -1 2 -0.13 1.43
-13 1 2 -0.24 2.06
-13 -1 -2 3.89 2.21
13 1 -2 0.89 1.43
13 1 2 2.13 1.41
13 -1 -2 -0.41 1.46
-13 1 -2 -1.09 2
-13 -1 2 -1.2 2.18
0 2 -2 123.23 2.18
0 2 2 125.61 2.36
0 -2 2 119.44 1.98
0 -2 -2 126.15 2.22
0 -2 2 121.37 1.92
0 2 2 124.93 2.21
0 2 2 122.65 2.01
0 -2 -2 127.07 1.88
0 -2 -2 126.8 2.12
1 -2 2 4.38 0.3
-1 2 2 4.66 0.38
-1 2 2 5.84 0.69
1 2 -2 4.27 0.51
1 2 -2 4.56 0.43
-1 -2 -2 4.79 0.39
-1 -2 -2 3.57 0.52
1 2 2 4.34 0.36
1 2 2 4.57 0.5
1 -2 -2 4.52 0.35
1 -2 -2 4.11 0.48
1 -2 -2 4.59 0.47
-1 -2 2 5.24 0.52
-1 2 -2 3.51 0.5
-2 2 2 35.49 1.25
2 -2 2 32.66 1.04
-2 -2 -2 33.45 0.74
2 -2 2 33.96 0.8
2 2 -2 31.35 1.01
-2 -2 -2 32.28 1.08
2 2 -2 33.04 0.86
2 -2 -2 34.17 0.84
2 -2 -2 31.82 1
-2 -2 2 33.06 1.09
2 2 2 34.33 0.68
-2 2 -2 32.92 1.03
2 -2 -2 32.3 0.87
2 2 2 32.92 0.86
2 2 2 32.31 1.02
-3 2 2 121.02 2.49
3 2 -2 120.86 2.07
3 -2 2 121.27 2.12
-3 -2 -2 121.23 2.36
3 -2 2 117.07 2.32
3 2 -2 122.14 2.32
-3 -2 -2 119.76 1.95
3 -2 -2 120.72 2.28
-3 -2 2 124.67 2.46
3 -2 -2 119.98 2.21
3 -2 -2 122.58 1.93
-3 2 -2 123.14 2.31
3 2 2 118.91 2.02
3 2 2 119.97 2.32
4 2 -2 28.72 0.83
-4 -2 -2 28.49 0.69
-4 2 2 29.88 1.33
-4 -2 -2 27.88 1.13
4 -2 2 30.37 1.18
4 -2 2 31.44 1
4 2 2 28.66 0.88
4 -2 -2 28.45 1.05
4 -2 -2 28.78 1.11
-4 -2 2 30.98 1.34
4 2 2 29.31 1.16
5 -2 2 1.03 0.7
-5 -2 -2 1.1 0.31
-5 -2 -2 -0.12 0.57
-5 2 2 0.85 0.82
5 2 -2 0.32 0.37
-5 2 -2 -0.95 0.63
5 2 2 0.93 0.6
5 -2 -2 0.07 0.54
-5 -2 2 -0.88 0.79
5 -2 -2 -0.51 0.54
5 2 2 0.6 0.46
6 2 -2 48.04 1.2
-6 2 2 47.63 1.96
6 2 -2 48.59 1.57
-6 -2 -2 50.79 1.55
6 -2 2 47.96 1.68
6 2 2 46.93 1.66
-6 -2 2 47.25 1.95
6 -2 -2 48.83 1.58
-6 2 -2 45.96 1.73
6 -2 -2 48.46 1.56
6 2 2 49.01 1.41
7 2 -2 1.28 0.74
-7 -2 -2 1.63 0.72
7 2 -2 2.52 0.53
7 -2 2 2.38 0.86
-7 2 2 1.52 1.12
7 -2 -2 1.18 0.73
-7 2 -2 2.19 1.05
7 -2 -2 1.73 0.79
7 2 2 1.62 0.81
-7 -2 2 0.18 1
7 2 2 2.13 0.68
8 2 -2 16.32 1.39
8 -2 2 16.27 1.33
-8 2 2 17.89 1.68
-8 -2 -2 17.87 1.28
8 -2 -2 16.55 1.4
8 2 2 17.42 1.3
-8 2 -2 18.91 1.81
-8 -2 2 18.21 1.7
8 2 2 19.75 1.4
-9 2 2 18.61 1.9
9 -2 2 17.88 1.54
9 2 -2 18.41 1.54
-9 -2 -2 18.75 1.37
9 -2 -2 18.18 1.47
-9 2 -2 19 1.82
9 2 2 17.51 1.46
9 2 2 19.61 1.5
-9 -2 2 17.19 1.89
-10 2 2 10.62 1.91
10 2 -2 8.89 1.25
10 -2 2 11.01 1.5
-10 -2 -2 9.73 1.79
-10 -2 2 12.99 2.09
10 -2 -2 11.4 1.37
-10 2 -2 11.87 1.8
10 2 2 12.05 1.27
11 2 -2 -0.22 1.14
11 -2 2 2.94 1.38
-11 2 2 -0.43 1.73
-11 -2 -2 2.12 1.76
-11 -2 2 0.84 1.91
11 -2 -2 -0.25 1.22
-11 2 -2 0.59 1.73
11 2 2 -0.5 1.03
-12 2 2 9.68 2.2
-12 -2 -2 11.24 2.28
12 2 -2 9.45 1.5
12 -2 2 11.06 1.75
12 2 2 12.27 1.53
-12 -2 2 9.28 2.28
-12 2 -2 11.35 2.17
12 -2 -2 11.88 1.63
13 -2 2 -0.03 1.52
-13 2 2 -2.11 1.97
13 2 -2 -1.6 1.35
-13 -2 -2 1.3 2.17
-13 -2 2 -0.13 2.19
13 -2 -2 -0.04 1.47
13 2 2 0.13 1.27
0 -3 -2 81.75 1.59
0 -3 -2 83.27 1.75
0 3 2 84.54 1.69
0 -3 2 80.77 1.33
0 3 2 85.41 1.58
0 3 -2 80.56 1.75
0 3 2 85.71 1.86
1 3 -2 27.96 1.03
-1 -3 -2 27.82 0.79
-1 3 2 26.97 0.83
-1 3 2 28.81 1.12
-1 -3 -2 26.5 1.04
1 -3 -2 27.1 0.94
1 3 2 27.9 0.95
1 -3 -2 25.75 0.93
1 -3 -2 27.34 0.68
-1 3 -2 26.15 1.02
1 3 2 26.17 0.81
-1 -3 2 26.79 0.83
2 3 -2 12.38 0.62
-2 -3 -2 13.02 0.93
2 3 -2 11.5 0.87
-2 3 2 12.01 0.7
-2 3 2 11.74 0.96
-2 -3 -2 12.72 0.54
-2 3 -2 11.89 0.89
2 -3 -2 12.39 0.83
2 -3 -2 11.85 0.67
-2 -3 2 13.25 0.86
2 3 2 12.28 0.67
2 3 2 11.79 0.8
2 -3 -2 13.06 0.64
-3 -3 -2 52.66 0.95
3 3 -2 52.06 1.45
-3 -3 -2 55.32 1.52
-3 3 2 51.91 1.62
3 3 -2 51.79 1.11
-3 3 2 52.27 1.35
3 3 2 51.9 1.42
3 -3 -2 53.9 1.11
3 3 2 53.02 1.31
-3 -3 2 51.6 1.51
3 -3 -2 52.01 1.28
3 -3 -2 51.25 1.41
-3 3 -2 49.59 1.09
3 3 2 52.24 1.01
-3 3 -2 51.52 1.46
-4 3 2 17.65 1.22
-4 -3 -2 18.57 1.13
-4 -3 -2 20.07 0.42
4 3 -2 18.91 0.69
4 -3 2 16.7 1.11
4 3 -2 17.17 1.11
4 3 2 17.51 1.07
-4 -3 2 20.37 1.29
-4 3 -2 17.35 0.85
4 -3 -2 16.59 1.06
-4 3 -2 18.07 1.1
4 -3 -2 18.87 0.96
4 3 2 18.76 0.7
-5 3 2 8.48 1.1
5 3 -2 6.66 0.48
5 -3 2 7.36 0.94
-5 -3 -2 7.02 0.86
5 3 2 8.42 0.87
5 -3 -2 5.93 0.76
-5 3 -2 8.78 0.94
-5 -3 2 7.6 1.07
-5 3 -2 5.74 0.77
5 3 2 7.49 0.59
5 -3 -2 6.3 0.76
6 -3 2 38.22 1.68
6 3 -2 43.18 1.62
-6 -3 -2 42.12 1.6
-6 3 2 42.44 1.9
6 3 -2 40.45 1.03
6 3 2 41.99 1.28
-6 3 -2 42.1 1.58
6 -3 -2 44.12 1.57
-6 -3 2 40.3 1.94
6 -3 -2 40.05 1.58
6 3 2 43.65 1.8
-7 -3 -2 10.18 1.32
7 3 -2 11.32 1.02
7 -3 2 10.77 1.18
-7 3 2 10.36 1.34
7 3 2 10.78 1.12
7 3 2 11.12 0.86
7 -3 -2 10.79 1.04
-7 3 -2 11.56 1.2
-7 -3 2 13.38 1.51
8 -3 2 10.74 1.37
-8 3 2 11.24 1.52
-8 -3 -2 12.66 1.16
8 3 -2 12.32 1.19
8 3 2 10.12 1.17
8 -3 -2 10.58 1.17
8 3 2 12.12 1.02
-8 -3 2 12.46 1.66
-9 -3 -2 8.23 1.11
9 -3 2 7.84 1.39
9 3 -2 8.82 1.21
-9 3 2 8.66 1.63
9 3 2 8.57 1.05
-9 -3 2 7.82 1.72
9 -3 -2 8.02 1.2
9 3 2 6.7 1.18
-9 3 -2 10.89 1.56
-10 -3 -2 6.82 1.7
-10 3 2 9.58 1.89
10 -3 2 8.13 1.49
10 3 -2 7.72 1.24
-10 3 -2 6.14 1.63
10 -3 -2 7.73 1.42
10 3 2 5.59 1.08
-10 -3 2 6.34 1.9
-11 3 2 0.28 1.66
11 3 -2 -0.4 1.12
-11 -3 -2 1.73 1.72
11 -3 2 2.08 1.5
11 3 2 -0.45 1.03
-11 -3 2 0.4 1.97
11 -3 -2 0.81 1.28
12 -3 2 11.96 1.91
-12 -3 -2 12.66 2.39
12 3 -2 12.8 1.66
-12 3 2 12.25 2.26
-12 -3 2 11.1 2.48
12 -3 -2 11.13 1.68
-13 3 2 0.84 1.97
13 3 -2 1.82 1.48
-13 -3 -2 3.33 3.32
13 -3 -2 1.14 2.5
-13 3 -2 5.23 2.56
0 4 -2 6.12 0.72
0 -4 -2 6.93 0.55
0 4 2 6.7 0.56
0 -4 2 5.2 0.35
0 4 2 6.19 0.57
0 -4 -2 6.37 0.68
-1 -4 -2 7.12 0.49
1 4 -2 7.6 0.76
-1 4 2 7.5 0.78
-1 4 2 7.53 0.62
-1 -4 -2 6.65 0.78
-1 -4 2 7.04 0.56
1 4 2 7.91 0.62
1 -4 -2 7.21 0.61
1 -4 -2 7.37 0.67
1 4 2 7.42 0.63
1 -4 -2 6.82 0.5
-1 4 -2 7.12 0.78
-2 4 2 69.74 1.62
-2 -4 -2 65.64 1.28
2 4 -2 68.15 1.41
-2 -4 -2 68.74 1.82
-2 4 2 71.14 1.83
2 4 -2 69.29 1.79
2 -4 -2 70.8 1.42
-2 -4 2 68.17 1.61
2 -4 -2 68.29 1.66
2 -4 -2 70.43 1.58
2 4 2 69.51 1.58
2 4 2 66.88 1.63
-2 4 -2 68.34 1.79
-3 4 2 49.27 1.41
3 4 -2 52.02 1.12
3 4 -2 49.36 1.56
-3 4 2 47.33 1.58
3 -4 2 48.44 1.59
-3 -4 -2 52.36 1.64
3 -4 -2 50.16 1.29
-3 4 -2 44.59 0.82
3 -4 -2 48.55 1.5
-3 4 -2 49.25 1.59
3 4 2 49.65 1.46
-3 -4 2 49.67 1.55
3 4 2 47.02 0.9
3 4 2 48.33 1.36
4 -4 2 66.51 1.95
-4 4 2 69.55 1.81
-4 4 2 68.04 2.05
4 4 -2 69.93 1.35
4 4 -2 70.67 1.94
-4 -4 -2 71.44 2
-4 4 -2 69.83 1.44
4 4 2 68.74 1.84
4 -4 -2 71.57 1.73
-4 -4 2 71.19 2.04
4 -4 -2 72.29 1.89
-4 4 -2 66.37 1.94
4 4 2 68.05 1.35
4 4 2 67.46 1.74
-5 4 2 2.06 0.76
5 4 -2 3.14 1.03
-5 -4 -2 2.85 0.87
-5 4 2 2.85 1.01
-5 4 -2 3.2 0.67
-5 -4 2 4.37 1.06
5 4 2 2.38 0.48
5 -4 -2 2.7 0.76
5 4 2 2.51 0.74
-6 -4 -2 10.07 1.07
6 -4 2 9.45 1.13
-6 4 2 9.25 0.99
-6 4 -2 10.48 1.17
6 4 2 10.05 0.84
6 -4 -2 8.87 1.55
-6 -4 2 9.57 1.33
-6 4 -2 8.89 0.96
6 4 2 9.15 1.01
7 4 -2 1.74 0.86
7 -4 2 2.36 1.1
-7 -4 -2 1.61 0.9
-7 4 2 4.08 1.23
7 4 2 3.58 0.67
-7 4 -2 3.68 1.14
-7 -4 2 4.14 1.32
-7 4 -2 4.08 1.11
7 -4 -2 1.89 0.92
7 4 2 0.92 0.9
8 -4 2 25.97 1.91
-8 4 2 28.63 2.13
-8 -4 -2 24.88 1.67
8 4 -2 26.65 1.65
8 4 2 26.72 1.79
8 4 2 25.2 1.32
8 -4 -2 27.75 1.75
-8 4 -2 26.81 1.97
-8 -4 2 25.33 2.31
-9 4 2 8.81 1.63
9 4 -2 11.83 1.27
-9 -4 -2 9.52 1.26
9 -4 2 7.29 1.4
-9 4 -2 8.35 1.5
-9 -4 2 11.74 1.93
9 -4 -2 9.59 1.34
9 4 2 10.1 1.32
-10 4 2 27.3 2.46
-10 -4 -2 22.82 1.69
10 4 -2 24.31 1.77
10 -4 2 24.74 2.02
-10 -4 2 25.12 2.5
-10 4 -2 26.21 2.31
10 -4 -2 26.23 2.05
-11 -4 -2 2.03 1.8
-11 4 2 2.53 1.69
11 4 -2 3.96 1.25
11 -4 2 2.33 1.45
-11 -4 2 2.16 2.11
11 -4 -2 -0.6 1.32
-11 4 -2 0.9 1.64
12 -4 2 1.68 1.55
-12 4 2 4.53 1.67
-12 4 2 2.68 1.83
-12 -4 -2 4.44 2.01
12 4 -2 2.77 1.31
-12 -4 2 -0.06 2.18
12 -4 -2 3 1.43
-12 4 -2 5.02 1.75
0 5 2 44.11 1.34
0 5 -2 41.96 1.53
0 5 2 46.4 1.29
0 -5 -2 42.03 1.51
-1 5 2 3.5 0.57
-1 5 2 2.75 0.62
-1 5 2 2.39 0.7
-1 -5 -2 2.05 0.76
1 5 -2 1.69 0.68
-1 -5 2 3.69 0.56
1 5 2 2.51 0.57
1 -5 -2 2.79 0.61
1 5 2 2.28 0.6
1 -5 -2 2.85 0.72
-1 5 -2 2.95 0.77
-2 5 2 45.44 1.55
-2 -5 -2 44.34 1.66
-2 5 2 44.56 1.42
2 5 -2 44.46 1.61
2 5 2 44.47 1.39
-2 -5 2 44.52 1.37
-2 5 -2 46.44 1.6
2 -5 -2 47.24 1.19
2 5 2 43.79 1.39
-3 -5 -2 59.58 1.98
-3 5 2 59.14 1.73
3 5 -2 60.97 1.32
3 5 -2 60.87 1.91
-3 5 2 60.63 1.88
-3 -5 2 58.69 1.76
-3 5 -2 58.45 1.89
3 5 2 60.21 1.67
3 5 2 59.07 1.66
3 -5 -2 60.66 1.53
-4 -5 -2 39.1 1.72
-4 5 2 38.77 1.68
4 5 -2 40.06 1.7
-4 5 2 42.25 1.57
4 5 2 42.51 1.51
4 5 2 39.88 1.53
4 -5 -2 41.9 1.42
-4 5 -2 39.79 1.69
-4 -5 2 37.66 1.71
5 5 -2 5.08 0.97
5 -5 2 4.39 1.02
-5 -5 -2 4.82 0.99
-5 5 2 5.35 1.04
-5 5 2 4.3 0.88
5 5 2 3.83 0.83
5 5 2 5.63 0.87
5 -5 -2 3.52 0.83
-5 -5 2 4.62 1.15
-5 5 -2 3.85 1
6 -5 2 31.79 1.87
-6 -5 -2 31.63 1.75
-6 5 2 32.6 1.89
6 5 -2 32.6 1.77
-6 5 2 33.81 1.7
6 5 2 31.75 1.68
-6 5 -2 30.12 1.78
-6 -5 2 30.15 2.09
6 -5 -2 29.81 1.55
7 5 -2 1.82 0.87
-7 5 2 1.98 1.03
-7 5 2 2.68 1.21
-7 -5 -2 1.21 1.07
7 -5 2 1.82 1.17
7 5 2 2.01 0.99
-7 5 -2 1.16 1.1
-7 -5 2 2.47 1.39
7 -5 -2 1.59 1.02
-8 -5 -2 17.94 1.61
8 5 -2 18.88 1.58
-8 5 2 21.65 1.7
8 -5 2 16.88 1.69
-8 5 2 21.45 1.86
8 5 2 18.67 1.52
-8 5 -2 17.68 1.72
-8 -5 2 22.31 2.1
8 -5 -2 15.26 1.42
9 5 -2 21.82 1.77
-9 5 2 19.87 1.74
9 -5 2 19.07 1.79
-9 -5 -2 20.3 1.67
-9 5 2 21.43 1.96
9 -5 -2 21.28 1.69
-9 5 -2 24.62 1.96
9 5 2 20.12 1.62
-9 -5 2 20.07 2.26
10 5 -2 16.47 1.58
-10 5 2 14.39 1.77
-10 5 2 16.54 1.97
10 -5 2 13.64 1.78
-10 -5 2 13.27 2.25
10 -5 -2 14.78 1.62
-10 5 -2 15.19 1.92
-11 5 2 4.9 1.84
11 -5 2 0.93 1.57
-11 5 2 1.99 1.55
-11 -5 -2 2.8 1.9
11 5 -2 0.8 1.17
-11 -5 2 0.01 2.11
-11 5 -2 3.99 1.67
11 -5 -2 2.17 1.44
-12 5 2 8.99 1.84
-12 -5 -2 5.47 2.11
12 -5 2 4.85 1.81
12 5 -2 4.86 1.41
-12 5 -2 10.57 2.07
12 -5 -2 6.28 1.69
-12 -5 2 4.79 2.43
0 6 -2 23.8 1.48
0 6 2 26.11 1.27
0 -6 -2 26.92 1.48
0 6 2 27.64 1.13
-1 6 2 19.77 1.2
-1 -6 -2 21 1.73
1 6 -2 15.76 1.17
-1 6 2 19.45 1.04
1 6 2 18.13 1.16
-1 6 -2 17.79 1.4
1 6 2 18.44 1.07
-2 6 2 24.92 1.32
-2 -6 -2 25.09 1.61
2 6 -2 25.81 1.53
-2 6 2 26.42 1.18
-2 6 2 25.86 1.37
-2 -6 2 25.8 1.19
2 6 2 23.68 1.29
-2 6 -2 23.46 1.52
2 6 2 23.79 1.19
-3 6 2 7.38 0.99
-3 6 2 8.54 1.03
3 6 -2 5.11 0.98
-3 -6 -2 5.9 1.1
-3 -6 2 7.78 0.98
-3 6 -2 5.33 1.02
3 -6 -2 8.67 0.84
3 6 2 7.51 0.86
-4 6 2 27.65 1.58
-4 -6 -2 30.59 1.78
4 6 -2 29.1 1.67
-4 6 2 29.33 1.57
4 6 2 27.51 1.5
-4 6 -2 26.24 1.74
4 6 2 29.53 1.65
-4 -6 2 30.64 1.72
4 -6 -2 31.83 1.4
5 6 -2 12.24 1.32
-5 6 2 13.85 1.3
-5 -6 -2 11.03 1.38
5 6 2 14.48 1.23
5 6 2 12.68 1.13
-5 -6 2 13.12 1.67
-5 6 -2 9.8 1.26
6 6 -2 16.1 1.47
-6 -6 -2 14.51 1.49
-6 6 2 18.77 1.66
-6 6 2 20.35 1.57
6 -6 2 14.43 1.47
6 6 2 16.82 1.31
-6 6 -2 13.38 1.48
6 -6 -2 15.07 1.28
-6 -6 2 15.66 1.67
7 6 -2 9.88 1.15
-7 6 2 10.13 1.34
-7 6 2 12.83 1.46
7 -6 2 10.05 1.48
-7 -6 -2 10.36 1.44
7 -6 -2 12.39 1.37
-7 6 -2 10.32 1.52
-7 -6 2 13.93 1.8
7 6 2 15.64 1.41
8 -6 2 10.28 1.59
-8 6 2 11.46 1.48
-8 6 2 9.72 1.51
8 6 -2 9.79 1.22
-8 -6 -2 9.24 1.45
8 6 2 9.68 1.33
8 -6 -2 9.31 1.35
-8 -6 2 8.98 1.87
-8 6 -2 9.78 1.65
-9 6 2 3.1 1.4
9 -6 2 2.01 1.46
9 6 -2 1.46 1.07
-9 6 -2 2.21 1.51
-9 -6 2 4.09 1.92
9 6 2 -0.17 1.13
9 -6 -2 1.28 1.27
-10 6 2 12 1.74
10 6 -2 8.46 1.35
10 -6 2 9.17 1.76
-10 -6 2 12.34 2.31
-10 6 -2 11.55 1.94
10 -6 -2 11.5 1.63
-11 6 2 2.12 1.6
11 -6 2 2.01 1.66
-11 -6 -2 3.39 1.9
-11 6 -2 2.04 1.73
11 -6 -2 3.59 1.52
-11 -6 2 0.76 2.19
0 7 -2 2.3 0.99
0 7 2 5.09 0.89
0 7 2 4.05 0.7
-1 7 2 2.65 0.8
1 7 -2 2.27 0.95
-1 7 2 4.04 0.71
1 7 2 2.66 0.7
-1 7 -2 2.17 0.98
1 7 2 2.44 0.85
-2 7 2 42.01 1.74
2 7 -2 44.81 1.99
-2 7 2 46.46 1.5
-2 -7 -2 43.02 2.01
2 7 2 45.72 1.58
-2 7 -2 43.55 1.98
2 7 2 46.92 1.79
-3 7 2 9.02 1.08
-3 7 2 9.03 0.89
-3 -7 -2 9.02 1.24
-3 7 2 9.99 1.12
3 7 -2 7.93 1.2
-3 7 -2 7.32 1.17
3 7 2 9.06 1.09
3 7 2 8.18 1.04
-4 -7 -2 43.93 2.14
-4 7 2 44.63 2.18
-4 7 2 40.18 1.92
4 7 -2 44.81 2.11
-4 7 -2 39.54 2.08
4 7 2 44.26 1.75
4 7 2 43.07 1.89
5 7 -2 2.98 1.2
-5 -7 -2 1.49 1.18
-5 7 2 3.13 1.02
-5 7 2 2.4 1.12
-5 7 -2 2.67 1.25
-5 -7 2 3.8 1.3
5 -7 -2 2.15 1.02
5 7 2 1.73 0.95
5 7 2 0.93 0.99
-6 -7 -2 0.51 1.27
6 7 -2 3.29 1.25
-6 7 2 3.99 1.29
6 -7 -2 2.55 1.1
-6 -7 2 5.88 1.5
-6 7 -2 3.38 1.38
6 7 2 4.2 1.06
-7 7 2 2.45 1.34
7 7 -2 1.33 0.96
7 -7 -2 1.52 1.15
-7 7 -2 1.93 1.47
7 7 2 0.24 1.04
-7 -7 2 3.99 1.59
8 -7 2 16.2 1.88
-8 7 2 18.77 1.88
-8 -7 2 19.3 2.24
8 7 2 21.24 1.65
-8 7 -2 20.7 2.03
8 -7 -2 19.73 1.67
9 -7 2 2.2 1.58
-9 7 2 0.31 1.44
9 7 2 3.37 1.28
-9 -7 2 3.27 1.95
-9 7 -2 2.39 1.65
9 -7 -2 4.68 1.39
10 -7 2 16.11 2.13
-10 7 2 16.8 2.05
-10 -7 2 17.43 2.51
10 -7 -2 17.16 1.84
-10 7 -2 14.7 2.11
0 8 -2 39.26 2.06
0 8 2 40.26 1.86
1 8 -2 12.93 1.44
-1 8 2 15.42 1.34
-1 8 -2 12.22 1.42
1 8 2 15.29 1.35
-2 8 2 26.7 1.72
2 8 -2 26.99 1.97
-2 8 -2 26.76 1.95
2 8 2 30.84 1.79
-3 8 2 8.44 1.23
3 8 -2 8.65 1.37
3 8 2 8.23 1.22
-3 8 -2 7.84 1.39
4 8 -2 27.13 2.13
-4 8 2 24.36 1.88
-4 8 -2 23.03 1.84
4 8 2 24.81 1.99
4 8 2 23.91 1.84
5 8 -2 6.88 1.45
-5 8 2 9.2 1.37
-5 8 -2 5 1.48
5 8 2 7.2 1.2
5 8 2 6.04 1.29
-6 8 2 25.54 2.23
6 8 -2 26.77 2.35
-6 8 -2 21.66 2.05
6 8 2 26.97 2.03
-7 8 2 10.18 1.73
-7 8 -2 10.8 1.76
7 8 2 11.44 1.52
-8 8 2 15.36 1.93
-8 8 -2 8.18 1.96
-9 8 2 4.08 1.72
-9 8 -2 3.79 1.75
0 9 -2 6.12 1.4
0 9 2 7.56 1.26
1 9 -2 20.7 1.77
-1 9 2 23.08 1.82
-1 9 -2 23.2 1.86
1 9 2 22.74 1.86
2 9 -2 14.44 1.66
-2 9 2 13.96 1.43
2 9 2 15.28 1.54
-2 9 -2 14.03 1.67
-3 9 2 2.9 1.19
3 9 -2 0.2 1.31
-3 9 -2 1.23 1.34
3 9 2 2.05 1.2
-4 9 2 16.08 1.64
4 9 -2 12.41 1.74
-4 9 -2 12.66 1.78
4 9 2 14.71 1.62
5 9 -2 12.55 1.83
-5 9 2 15.54 1.69
-5 9 -2 12.48 1.87
5 9 2 19.22 1.81
-6 9 2 4.59 1.51
6 9 -2 3.63 1.6
-6 9 -2 3.97 1.7
-7 9 2 11.73 1.74
-7 9 -2 9.7 1.94
-8 9 2 8.49 1.75
-8 9 -2 6.09 1.78
0 10 -2 6.61 1.61
0 10 2 4.87 1.33
1 10 -2 2.44 1.5
-1 10 2 4.45 1.28
-1 10 -2 4.03 1.59
1 10 2 1.64 1.24
-2 10 2 11.44 1.51
2 10 -2 11.75 1.78
-2 10 -2 10.49 1.74
2 10 2 11.22 1.55
-3 10 2 8.54 1.47
3 10 -2 8.08 1.69
3 10 2 9.34 1.57
-3 10 -2 8.24 1.73
4 10 -2 3.9 1.64
-4 10 2 7.88 1.47
-4 10 -2 6.47 1.73
4 10 2 8.07 1.57
5 10 -2 3.66 1.73
-5 10 2 3.07 1.4
5 10 2 2.17 1.46
-5 10 -2 2.21 1.67
6 10 -2 3.4 1.7
-6 10 2 7.39 1.59
-6 10 -2 3.52 1.75
0 11 2 31.11 2.33
0 11 -2 20.68 2.11
-1 11 2 4.04 1.39
1 11 -2 4.95 1.62
-1 11 -2 4.09 1.67
1 11 2 6.47 1.54
2 11 -2 6 1.73
-2 11 2 9.2 1.56
-2 11 -2 7.43 1.78
2 11 2 9.07 1.64
-3 11 2 1 1.38
3 11 -2 0.24 1.62
-3 11 -2 2.75 1.68
3 11 2 3.21 1.46
-4 11 2 7.07 1.54
4 11 2 6.22 1.65
0 0 3 3.48 0.62
0 0 -3 3.5 0.49
0 0 -3 3.55 0.22
1 0 3 375.89 5.91
1 0 -3 381.61 5.93
-1 0 -3 395.62 5.65
1 0 3 376.45 6.02
-1 0 3 387.83 6.1
-1 0 -3 381.31 5.89
2 0 3 0.66 0.45
-2 0 -3 0.92 0.44
-2 0 3 0.24 0.62
2 0 -3 0.47 0.42
-3 0 3 49.18 1.54
3 0 3 49.82 1.24
3 0 -3 49.37 1.28
3 0 3 47.75 1.33
4 0 3 0.75 0.57
4 0 -3 0.36 0.47
4 0 3 0.74 0.5
-4 0 3 0.27 0.74
-5 0 3 102.26 2.61
5 0 -3 102.33 2.13
5 0 3 102.11 2.21
5 0 3 102.48 2.27
5 0 -3 105.47 2.28
6 0 -3 0.71 0.58
6 0 3 1.23 0.7
-6 0 3 0.04 0.92
6 0 3 0.81 0.72
6 0 -3 0.64 0.68
-7 0 3 81.07 2.69
7 0 3 84.85 2.67
7 0 -3 82.43 2.23
7 0 -3 84.2 2.03
7 0 3 81.18 2.27
8 0 3 1.92 0.95
-8 0 -3 -1.55 0.61
8 0 3 0.22 0.87
8 0 -3 0.04 0.78
-8 0 3 -0.72 1.14
8 0 -3 -0.34 0.69
-9 0 3 23.01 2.14
9 0 -3 20.86 1.59
9 0 3 21.25 1.55
-9 0 -3 21.76 1.97
9 0 3 19.37 1.65
-10 0 3 1.56 1.69
10 0 3 -0.52 1.08
10 0 -3 0.62 1.05
-10 0 -3 -0.09 1.55
11 0 3 32.03 2.14
-11 0 3 36.76 2.97
-11 0 -3 33.01 2.92
11 0 -3 36.1 2.17
-12 0 -3 0.67 2
12 0 3 3.66 1.43
-12 0 3 1.18 2.16
12 0 -3 1.38 1.36
13 0 -3 22.6 2.12
-13 0 3 15.81 2.7
-13 0 -3 23.68 2.76
13 0 3 18.21 1.93
0 -1 -3 114.81 2.07
0 1 -3 113.3 1.91
0 1 -3 114.96 2.1
0 -1 3 114.07 2.11
0 1 3 113.29 2.29
0 1 3 114.4 2.14
-1 -1 -3 181.35 2.94
-1 1 3 173.62 3.22
1 -1 3 174.94 2.91
1 1 -3 181.81 2.99
1 1 -3 176.19 2.85
1 1 3 172.92 3.03
1 -1 -3 178.02 2.99
-1 1 -3 182.34 2.85
-1 -1 3 175.13 3.07
2 1 -3 11.91 0.75
2 -1 3 12.29 0.76
-2 -1 -3 13.62 0.67
-2 1 3 10.56 0.99
2 1 -3 11.7 0.68
2 -1 -3 11.48 0.8
-2 1 -3 10.87 0.66
-2 -1 3 12.13 0.95
2 1 3 11.21 0.83
-3 1 3 109.5 2.4
3 -1 3 109.86 2.16
3 -1 3 108.69 2.06
3 1 -3 104.33 2.02
-3 -1 -3 105.66 1.94
3 1 3 108.1 2.18
3 -1 -3 108.09 2.09
-3 -1 3 107.22 2.36
3 -1 -3 104.01 2.11
3 1 3 110.27 1.97
4 1 -3 10.67 0.79
4 -1 3 11.64 0.77
4 -1 3 11.87 0.94
-4 1 3 12.48 1.07
4 -1 -3 11.27 0.91
4 1 3 12.01 0.83
-4 -1 3 13.38 1.23
4 -1 -3 10.35 0.86
4 1 3 11.04 0.76
-5 1 3 50.37 1.91
5 1 -3 52.48 1.37
5 -1 3 50.62 1.53
5 -1 3 50.39 1.57
5 1 3 50.94 1.59
5 1 3 49.75 1.39
5 -1 -3 50.77 1.48
-5 -1 3 51.34 1.85
5 -1 -3 51.21 1.51
6 1 -3 20.33 1.01
6 -1 3 20.54 1.29
6 -1 3 18.8 1.29
-6 1 3 21.97 2.35
6 1 3 19.8 1.57
-6 -1 3 18.79 1.67
6 -1 -3 16.85 1.17
6 1 3 20.94 1.11
6 -1 -3 19.75 1.17
7 -1 3 45.28 1.75
7 1 -3 45.7 1.46
7 1 -3 46.91 1.75
7 -1 3 47.48 1.81
-7 -1 -3 48.62 1.64
-7 1 3 45.24 2.15
7 1 3 46.94 1.58
-7 -1 3 46.06 2.22
7 1 3 42.77 1.83
7 -1 -3 47.58 1.63
7 -1 -3 46.91 1.7
-8 1 3 2.08 1.29
8 1 -3 2.04 0.9
8 -1 3 2.22 0.96
8 1 -3 2.41 0.71
8 -1 3 0.18 0.94
-8 1 -3 2.5 1.2
8 1 3 2.46 0.99
8 -1 -3 4 0.86
-8 -1 3 2 1.3
8 1 3 2.23 0.82
8 -1 -3 2.27 0.9
-9 1 3 27.96 2.43
9 1 -3 27.9 1.75
9 1 -3 30.61 1.47
-9 -1 -3 29.29 1.48
9 -1 3 31.4 1.91
-9 1 -3 33.53 2.31
9 -1 -3 29.07 1.75
9 1 3 30.66 1.68
9 1 3 28.47 1.88
-9 -1 3 28.44 2.49
10 -1 3 2.66 1.22
-10 1 3 4.28 1.74
10 1 -3 2.63 1.16
-10 -1 -3 2.96 1.57
10 1 3 1.76 1.04
10 -1 -3 1.88 1.1
-10 -1 3 4.71 1.8
-10 1 -3 4.19 1.65
-11 -1 -3 20.42 2.35
-11 1 3 14.51 2.17
11 1 -3 12.88 1.53
11 -1 3 13.95 1.65
11 -1 -3 14.12 1.57
-11 1 -3 16.32 2.17
11 1 3 11.09 1.46
-11 -1 3 8.61 2.1
-12 -1 -3 4.16 2.04
12 1 -3 2.62 1.43
-12 1 3 3.37 2.1
12 -1 3 3.03 1.49
-12 1 -3 5.99 2.11
12 1 3 2.25 1.31
-12 -1 3 1.03 2.12
12 -1 -3 3.28 1.44
-13 1 3 7.65 2.36
13 1 -3 13.58 1.87
13 -1 3 10.01 1.84
-13 -1 -3 14.85 2.58
13 1 3 13.24 1.74
-13 -1 3 10.64 2.64
13 -1 -3 11.76 1.77
-13 1 -3 11.67 2.88
0 -2 -3 43.15 1.1
0 2 -3 39.59 1.13
0 2 -3 41.22 1.07
0 -2 3 39.7 1
0 2 3 42.08 1.19
0 2 3 40.69 0.77
0 -2 3 42.53 0.93
0 2 3 40.91 1.35
1 2 -3 79.53 1.59
-1 -2 -3 77.51 1.51
1 -2 3 74.67 1.4
-1 2 3 76.22 1.34
-1 2 3 76.66 1.89
1 2 -3 76.33 1.57
1 -2 -3 77.23 1.62
-1 2 -3 78.5 1.58
1 2 3 73.17 1.29
-1 -2 3 75.43 1.61
1 2 3 75.52 1.67
-2 -2 -3 5.43 0.45
2 2 -3 4.38 0.57
2 -2 3 4.95 0.46
2 2 -3 3.98 0.49
-2 2 3 6.12 0.85
-2 2 -3 4.44 0.56
-2 -2 3 4.93 0.7
2 -2 -3 5.24 0.6
2 2 3 5.2 0.62
2 -2 -3 4.82 0.48
3 2 -3 29.13 0.96
-3 -2 -3 28.41 0.82
-3 2 3 28.06 1.36
3 -2 3 30.65 0.96
3 2 -3 29.28 1.12
3 -2 3 29.25 1.17
3 2 3 30.72 0.81
3 2 3 28.84 1.17
-3 2 -3 29.56 1.08
3 -2 -3 29.59 1.12
3 -2 -3 29.09 0.98
-3 -2 3 29.25 1.28
4 -2 3 3.12 0.77
-4 -2 -3 3.48 0.7
-4 2 3 3.63 0.89
4 -2 3 3.48 0.6
4 2 -3 3.73 0.52
-4 -2 -3 3.73 0.42
-4 -2 3 4.77 0.91
4 -2 -3 2.18 0.6
4 2 3 4.36 0.7
-4 2 -3 1.86 0.64
4 2 3 3.11 0.45
4 -2 -3 3.78 0.33
4 -2 -3 3.76 0.6
-5 -2 -3 37.57 1.47
5 2 -3 37.88 1.14
-5 -2 -3 37.3 0.96
5 -2 3 38.32 1.32
-5 2 3 35.5 1.73
5 -2 3 36.72 1.49
5 2 3 37.62 1.14
5 -2 -3 36.14 1.32
5 -2 -3 35.88 1.38
-5 -2 3 35.9 1.75
5 2 3 35.21 1.4
6 -2 3 7.2 0.85
6 2 -3 7.05 0.65
6 -2 3 6.9 0.97
6 2 -3 6.04 0.81
-6 -2 -3 8.37 0.57
-6 -2 -3 5.55 0.87
-6 2 3 9.45 1.46
6 2 3 7.25 0.71
6 2 3 8 0.94
6 -2 -3 5.98 0.89
7 -2 3 25.52 1.63
-7 2 3 25.79 1.93
7 2 -3 29 1.51
-7 -2 -3 26.86 1.89
7 2 -3 28.38 1.14
7 -2 -3 26.65 1.48
7 2 3 25.35 1.24
-7 -2 3 24.01 1.98
-7 2 -3 26.01 1.65
7 -2 -3 27.37 1.45
7 2 3 24.89 1.57
8 -2 3 1.35 1.06
-8 2 3 1.65 1.29
8 2 -3 0.83 0.65
8 2 -3 0.56 0.86
-8 -2 -3 0.81 0.82
8 -2 -3 1.8 0.92
-8 2 -3 0.13 1.13
8 2 3 1.25 0.75
8 2 3 0.92 0.91
-8 -2 3 2.55 1.42
8 -2 -3 1.7 0.86
-9 2 3 10.15 1.72
9 -2 3 11.68 1.48
9 2 -3 13.91 1.32
-9 -2 -3 14.31 1.25
9 2 3 13.73 1.2
-9 -2 3 12.62 1.91
9 -2 -3 13.49 1.31
-9 2 -3 16.87 1.71
9 2 3 14.66 1.47
10 -2 3 1.85 1.35
-10 2 3 0.82 1.67
10 2 -3 -0.22 1.07
-10 2 -3 0.85 1.59
10 2 3 1.48 0.99
10 -2 -3 1.23 1.13
-10 -2 3 1.66 1.78
10 2 3 1.74 1.24
11 2 -3 10.53 1.5
-11 2 3 10.68 2.07
-11 -2 -3 12.68 2.17
11 -2 3 9.9 1.58
-11 -2 3 9.62 2.25
-11 2 -3 9.67 1.91
11 -2 -3 9.92 1.56
11 2 3 8.21 1.32
-12 2 3 -0.48 1.95
-12 -2 -3 3.24 2
12 -2 3 1.82 1.45
12 2 -3 0.07 1.26
12 -2 -3 3.03 1.47
-12 -2 3 -1.82 2.06
-13 -2 -3 8.7 2.65
13 -2 3 8.83 2.37
13 2 -3 9.63 2.44
-13 2 3 3.16 2.3
0 3 -3 121.04 2.32
0 3 3 120.21 2.04
0 3 3 121.41 2.55
0 3 3 126.24 2.37
0 -3 -3 120.83 2.35
0 -3 3 117.63 1.96
0 -3 -3 114.61 2.19
0 -3 3 119.42 1.89
1 3 -3 112.93 2.14
1 3 -3 110.36 2.22
-1 -3 -3 112.6 2.31
-1 -3 -3 111.93 2.04
1 -3 3 112.14 1.78
-1 3 3 112.42 2.47
-1 3 3 113.05 1.99
1 -3 -3 116.51 2.2
1 3 3 111.56 2.25
1 -3 -3 115.59 1.88
1 -3 -3 110.97 2.17
1 3 3 109.18 1.95
-1 3 -3 113.08 2.24
-1 -3 3 113.3 2.07
-2 -3 -3 2.34 0.4
2 3 -3 2.15 0.47
-2 -3 -3 1.72 0.63
-2 3 3 2.47 0.76
2 3 -3 2.13 0.6
-2 3 3 2.66 0.42
2 -3 3 1.91 0.34
-2 3 -3 1.33 0.59
-2 -3 3 1.95 0.66
2 3 3 2.13 0.39
2 -3 -3 2.65 0.51
2 3 3 2.54 0.58
2 -3 -3 1.52 0.53
2 -3 -3 2.23 0.43
3 3 -3 57.76 1.33
-3 -3 -3 57.8 1.17
-3 3 3 55.3 1.78
-3 3 3 58.05 1.38
-3 -3 -3 57.85 1.69
3 3 -3 57.9 1.58
3 -3 3 53.81 1.2
3 3 3 56.7 1.61
-3 -3 3 59.06 1.69
3 -3 -3 56.34 1.36
-3 3 -3 57.08 1.58
3 -3 -3 55.32 1.56
-3 3 -3 54.64 1.13
3 -3 -3 56.79 1.25
-4 3 3 7.45 1.07
4 -3 3 7.25 0.6
-4 -3 -3 7.44 0.53
4 3 -3 8.17 0.88
-4 -3 -3 6.06 0.86
4 3 -3 6.13 0.56
4 -3 3 5.23 0.87
4 -3 -3 6.44 0.46
-4 3 -3 7.1 0.64
4 3 3 6.96 0.79
-4 -3 3 8.1 1.03
-4 3 -3 7.12 0.88
4 -3 -3 6.65 0.7
4 3 3 6.74 0.56
4 -3 -3 6.23 0.73
5 3 -3 63.68 1.45
-5 -3 -3 61.81 1.93
-5 3 3 60.36 2.09
-5 3 -3 60.04 1.62
-5 -3 3 62.62 2.15
5 -3 -3 64.5 1.71
5 3 3 62.83 2.21
5 3 3 59.55 1.39
-5 3 -3 61.43 1.89
-6 -3 -3 38.01 1.62
6 3 -3 35.58 1.12
-6 3 3 34.26 1.89
6 -3 3 32.89 1.67
6 3 3 33.51 1.6
-6 3 -3 31.56 1.66
6 3 3 34.26 1.16
-6 3 -3 32.47 1.47
-6 -3 3 36.67 2.01
6 -3 -3 31.48 1.54
7 -3 3 47.2 1.99
-7 -3 -3 45.31 1.84
-7 3 3 46.16 2.21
7 3 -3 46.13 1.81
7 -3 -3 44.92 1.84
7 3 3 45.77 1.91
-7 3 -3 46.12 1.96
-7 -3 3 44.45 2.32
7 -3 -3 45.47 1.77
-7 3 -3 43.78 1.83
7 3 3 47.07 1.47
-8 3 3 0.13 1.32
8 3 -3 0.56 0.92
-8 -3 -3 0.39 0.91
8 -3 3 0.67 1.08
8 -3 -3 1.68 0.98
8 3 3 -0.18 0.96
-8 -3 3 -0.62 1.35
-8 3 -3 0.52 1.75
8 3 3 0.96 0.71
-9 3 3 19.37 1.96
9 3 -3 22.92 1.68
9 -3 3 17.85 1.68
-9 -3 -3 20.23 1.5
9 -3 -3 19.75 1.59
9 3 3 18.58 1.39
9 3 3 22.07 1.7
-9 -3 3 23.13 2.24
10 3 -3 1.53 1.1
-10 -3 -3 0.76 1.05
-10 3 3 3.45 1.71
10 -3 3 1.54 1.34
-10 -3 3 3.13 1.93
10 3 3 4.85 1.35
10 -3 -3 2.31 1.25
-11 3 3 23.03 2.49
11 -3 3 17.03 1.93
11 3 -3 19.87 1.78
-11 -3 -3 25.16 2.52
11 -3 -3 22.69 1.91
-11 3 -3 24.02 2.14
-11 -3 3 18.52 2.57
-12 3 3 4.63 2.01
12 3 -3 5.51 1.52
12 -3 3 5.69 1.71
-12 -3 -3 6.88 2.17
-12 -3 3 6.09 2.46
-12 3 -3 8.63 1.92
12 -3 -3 6.11 1.55
0 4 3 65.96 1.63
0 -4 -3 63.2 1.51
0 4 3 65.51 1.41
0 -4 -3 64.8 1.72
0 4 3 64.71 1.87
0 4 -3 66.72 1.73
-1 -4 -3 68.88 1.81
-1 4 3 68.8 1.71
-1 -4 -3 68.43 1.46
-1 4 3 66.89 1.48
-1 4 3 65.16 1.89
1 4 -3 66.28 1.78
-1 -4 3 64.17 1.4
-1 4 -3 67.68 1.76
1 4 3 67.98 1.46
1 -4 -3 70.49 1.69
1 -4 -3 67.37 1.63
1 4 3 65 1.7
-2 4 3 9.07 0.75
-2 -4 -3 8.65 0.69
2 4 -3 9.06 0.65
-2 -4 -3 9.07 0.93
2 4 -3 10.01 0.89
-2 4 3 11.02 1.06
-2 -4 3 9.65 0.81
2 -4 -3 9.56 0.79
2 -4 -3 9.11 0.75
2 4 3 9.31 0.71
2 -4 -3 9.45 0.64
-2 4 -3 8.41 0.87
2 4 3 10.1 0.81
-3 -4 -3 94.61 2.35
-3 4 3 96.47 2.45
3 4 -3 98.84 1.93
-3 -4 -3 97.72 1.73
3 4 -3 95.81 2.29
-3 4 3 98.09 2.07
-3 -4 3 94.78 2.24
3 -4 -3 97.92 1.95
3 -4 -3 93.71 2.19
3 4 3 96.07 2.26
-3 4 -3 95.51 2.3
3 4 3 98.09 2.02
3 -4 -3 98.46 1.94
-4 -4 -3 11.87 1.69
-4 4 3 11.2 1.18
4 4 -3 11.39 1.03
-4 4 3 11.23 0.85
4 4 -3 10.92 0.77
4 -4 -3 10.58 0.84
-4 4 -3 9.91 1.04
-4 -4 3 12.05 1.16
4 4 3 11.49 0.98
-5 4 3 35.76 1.44
-5 -4 -3 36.72 1.68
5 -4 3 33.93 1.72
5 4 -3 37.29 1.65
5 4 -3 38.95 1.12
5 -4 -3 35.46 1.59
5 -4 -3 39.11 1.43
5 4 3 37.65 1.63
-5 -4 3 38.17 1.88
-5 4 -3 39.51 1.73
-6 -4 -3 23.53 1.6
-6 4 3 25.97 1.44
6 -4 3 23.56 1.68
-6 4 3 23.47 1.84
-6 4 -3 25.76 1.67
6 4 3 24.49 1.52
-6 -4 3 23.89 1.95
6 -4 -3 23.38 1.38
6 -4 -3 21.66 1.49
-7 4 3 28.61 2.05
7 4 -3 24 1.55
-7 -4 -3 28.73 1.72
7 -4 3 23.47 1.85
-7 4 -3 26.14 1.83
-7 -4 3 25.23 2.24
7 4 3 25.07 1.69
7 -4 -3 29.87 1.61
-8 -4 -3 3.88 1.12
8 4 -3 3.37 1.09
8 -4 3 5.92 1.3
-8 4 3 3.34 1.4
8 4 3 3.11 1.12
8 -4 -3 5.26 1.1
-8 -4 3 2.94 1.6
-8 4 -3 3.87 1.31
-9 -4 -3 37.61 2.04
-9 4 3 35.75 2.51
9 -4 3 37.56 2.29
9 4 -3 36.57 2.02
-9 4 -3 37.42 2.42
9 4 3 37.87 2.26
9 -4 -3 40.44 2.08
-9 -4 3 38.31 2.9
10 -4 3 1.61 1.46
-10 4 3 3.01 1.63
-10 -4 -3 2.67 1.23
10 4 -3 4.75 1.24
10 -4 -3 4.29 1.31
10 4 3 3.51 1.34
-10 -4 3 3.64 2.04
-10 4 -3 5.94 1.64
-11 4 3 12.58 2.11
-11 -4 -3 11.16 2.08
11 -4 3 13.18 1.94
11 4 -3 15.86 1.67
-11 4 -3 12.13 1.93
-11 -4 3 13.37 2.54
11 -4 -3 13.35 1.71
-12 4 3 9.35 1.79
-12 4 3 6.8 1.96
12 4 -3 3.32 1.39
12 -4 3 2.6 1.64
-12 -4 -3 7.12 2.1
-12 -4 3 4.17 2.38
-12 4 -3 5.84 1.82
12 -4 -3 5.53 1.56
0 5 3 4.58 0.6
0 5 -3 4.35 0.87
0 5 3 3.95 0.67
0 -5 -3 4.71 0.65
0 -5 -3 5.49 0.85
-1 5 3 31.89 1.5
1 5 -3 30.4 1.44
-1 -5 -3 30.47 1.46
-1 -5 -3 31.3 1.07
-1 5 3 32.69 1.16
-1 5 3 32.53 1.27
1 -5 -3 33.26 1.27
1 5 3 31.32 1.11
1 5 3 31.37 1.26
-1 5 -3 32.33 1.46
1 -5 -3 32.34 1.36
-2 -5 -3 12.13 1.31
-2 5 3 13.13 0.94
-2 5 3 13.1 1.13
2 5 -3 11.06 1.05
2 5 -3 13.22 0.95
-2 -5 -3 12.67 0.76
2 -5 -3 12.36 0.74
2 5 3 11.93 0.89
-2 -5 3 10.9 1
2 -5 -3 15.44 1.13
2 5 3 12.81 0.93
-2 5 -3 10.62 1.03
2 -5 -3 12.86 1.07
-3 -5 -3 41.57 1.74
-3 5 3 40.97 1.44
-3 5 3 40.69 1.82
3 5 -3 43.3 1.72
3 5 -3 44.01 1.26
3 5 3 42.06 1.37
3 -5 -3 42.51 1.36
-3 5 -3 42.03 2.21
3 -5 -3 43.79 1.25
3 5 3 43.68 1.57
-3 -5 3 37.55 1.55
-4 5 3 9.56 0.92
-4 -5 -3 7.87 1.08
4 5 -3 10.35 1.13
4 5 -3 9.59 0.68
-4 5 -3 8.6 1.12
-4 -5 3 8.85 1.14
4 -5 -3 9.09 0.85
4 5 3 9.76 1
4 5 3 9.35 0.87
4 -5 -3 9.51 1.03
5 5 -3 19.14 1.39
-5 5 3 21.83 1.71
-5 -5 -3 19.85 1.59
-5 5 3 20.28 1.34
5 5 3 19.59 1.47
5 -5 -3 21.76 1.27
-5 -5 3 20.67 1.8
-5 5 -3 22.09 1.66
5 -5 -3 18.65 1.53
-6 5 3 2.29 1.15
6 -5 3 0.87 1.13
-6 5 3 0.75 0.88
6 5 -3 0.95 1
-6 -5 -3 0.21 0.95
-6 -5 3 1.41 1.26
-6 5 -3 1.98 1.09
6 5 3 1.15 0.91
6 -5 -3 2.48 0.88
-7 -5 -3 19.48 1.61
-7 5 3 19.37 1.65
7 5 -3 18.22 1.45
7 -5 3 14.75 1.6
-7 5 3 21.56 2
7 5 3 19.47 1.49
-7 -5 3 21.8 1.94
-7 5 -3 19.88 1.67
7 -5 -3 20.97 1.56
8 5 -3 4.28 1.11
-8 -5 -3 6.55 1.33
8 -5 3 3.47 1.45
-8 5 3 5.19 1.18
-8 5 3 5.17 1.55
8 -5 -3 5.64 1.17
8 5 3 8.2 1.31
-8 5 -3 5.85 1.46
-8 -5 3 6.1 1.78
-9 -5 -3 14.69 1.59
-9 5 3 11.63 1.52
9 5 -3 14.48 1.5
-9 5 3 16.84 1.94
9 -5 3 15.25 1.85
9 5 3 13.48 1.56
-9 5 -3 16.88 1.88
9 -5 -3 15.77 1.57
-9 -5 3 13.92 2.19
-10 5 3 1.58 1.37
-10 5 3 5.43 1.79
-10 -5 -3 3.19 1.39
10 5 -3 2.35 1.25
10 -5 3 2.99 1.64
-10 -5 3 3.05 2.13
-10 5 -3 4.98 1.68
10 5 3 3.96 1.4
10 -5 -3 3.33 1.28
-11 5 3 6.5 1.7
-11 5 3 8.46 1.94
11 -5 3 3.01 1.64
11 5 -3 7.01 1.46
-11 -5 3 5.18 2.39
-11 5 -3 4.2 1.76
11 -5 -3 5.79 1.53
0 -6 -3 18.01 1.14
0 -6 -3 20.87 1.76
0 6 -3 19.38 1.52
0 6 3 23.33 1.25
0 6 3 19.47 1.13
-1 6 3 32.8 1.34
1 6 -3 36.57 1.71
-1 6 3 36.98 1.43
-1 -6 -3 34.65 1.67
1 -6 -3 37.34 1.49
1 -6 -3 34.83 1.62
1 6 3 37.17 1.36
-1 6 -3 34.08 1.68
1 6 3 35.82 1.48
2 6 -3 0.2 0.63
-2 -6 -3 0.03 0.88
-2 6 3 -0.47 1.13
-2 6 3 -0.78 0.65
2 6 -3 -0.57 0.85
-2 6 3 -0.41 0.65
2 -6 -3 -0.58 0.77
2 -6 -3 0.33 0.83
2 6 3 0.12 0.63
-2 6 -3 -1.08 0.89
2 6 3 0.88 1.22
-3 6 3 37.22 1.84
-3 -6 -3 35.57 1.83
3 6 -3 36.18 1.81
3 6 -3 37.32 1.28
3 6 3 36.38 1.59
3 6 3 36.87 1.47
-3 6 -3 35.48 1.78
-4 6 3 0.23 0.96
-4 -6 -3 -0.3 0.99
-4 6 3 0.54 0.78
4 6 -3 0.04 0.92
4 -6 -3 -0.02 0.74
4 6 3 0.26 0.76
-4 -6 3 -1.31 0.98
4 6 3 0.17 0.82
-4 6 -3 0.26 0.99
-5 6 3 26.8 1.6
5 6 -3 24.91 1.86
-5 -6 -3 23.03 1.78
-5 6 3 26.51 1.87
5 6 3 26.57 1.62
-5 -6 3 27.58 2.23
-5 6 -3 21.67 1.84
5 -6 -3 27.52 1.61
-6 6 3 15.2 1.39
-6 6 3 15.05 1.53
6 6 -3 14.27 1.53
-6 -6 -3 12.49 1.49
-6 6 -3 13.66 1.54
6 6 3 13 1.29
-6 -6 3 12.47 1.64
6 -6 -3 12.26 1.2
7 6 -3 17.76 1.45
7 -6 3 18.47 1.85
-7 6 3 20.69 1.99
-7 -6 -3 20.41 1.75
-7 6 3 21.89 1.81
7 6 3 24.25 1.86
-7 6 -3 20.11 1.84
-7 -6 3 23.96 2.06
7 -6 -3 19.96 1.49
-8 -6 -3 -0.76 1.31
-8 6 3 1.73 1.22
8 -6 3 -0.16 1.41
8 6 -3 1.17 1.12
-8 6 3 1.9 1.38
8 -6 -3 -1.21 1.06
-8 -6 3 0.51 1.71
8 6 3 0.22 1.13
-8 6 -3 1.29 1.5
-9 -6 -3 13.22 1.73
9 -6 3 11.46 1.74
-9 6 3 14.23 1.73
9 6 -3 14.67 1.5
-9 6 3 17.16 1.85
9 6 3 13.88 1.59
-9 6 -3 13.02 1.92
-9 -6 3 10.57 2.2
9 -6 -3 15.76 1.58
-10 -6 -3 -1.83 1.42
-10 6 3 -0.64 1.35
10 -6 3 -0.22 1.59
10 6 -3 -0.61 1.21
10 -6 -3 -1.34 1.26
-10 6 -3 -0.13 1.73
10 6 3 -0.02 1.3
-10 -6 3 -1.34 2.05
11 -6 3 5.33 1.81
11 6 -3 7.19 1.47
-11 6 3 8.71 1.78
-11 6 -3 7.25 1.97
-11 -6 3 7.17 2.47
11 -6 -3 6.94 1.55
0 -7 -3 0.35 1.03
0 7 3 1.33 0.75
0 7 3 2.59 0.8
0 7 -3 3.01 1.1
1 7 -3 30.86 1.89
-1 7 3 32.57 1.48
-1 -7 -3 30.95 1.86
-1 7 3 29.98 1.46
1 7 3 30.08 1.48
-1 7 -3 28.36 1.83
1 7 3 32.92 1.49
-2 -7 -3 10.69 1.38
2 7 -3 8.69 1.25
2 7 -3 12.55 0.95
-2 7 3 10.93 1
-2 7 3 10.83 1.05
2 7 3 12.55 1.11
-2 7 -3 11.04 1.33
2 7 3 10.99 1.06
-3 7 3 64.05 2.05
3 7 -3 60.75 2.38
-3 7 3 61.38 2.26
-3 -7 -3 61.85 2.41
-3 7 3 63.71 1.99
3 7 3 65.21 2.05
3 7 3 60.55 2.01
-3 7 -3 62.31 2.39
-4 7 3 14.61 1.26
-4 -7 -3 12.08 1.5
4 7 -3 11.4 1.42
-4 7 3 14.75 1.44
4 7 3 14.49 1.23
4 7 3 13.1 1.2
-4 7 -3 12.98 1.48
-5 -7 -3 21.96 1.76
-5 7 3 22.84 1.83
5 7 -3 20.82 1.76
-5 7 3 22.44 1.76
5 7 3 22.92 1.64
-5 7 -3 20.62 1.81
5 7 3 25.8 1.69
-6 7 3 2.88 1.22
-6 7 3 1.99 1.17
-6 -7 -3 0.7 1.31
6 7 -3 1.57 1.28
-6 7 -3 0.59 1.38
6 7 3 0.44 1.04
-7 -7 -3 15.79 1.74
-7 7 3 22.44 1.84
-7 7 3 16.87 1.81
7 7 -3 12.54 1.35
7 7 3 16.5 1.52
-7 7 -3 18.06 1.89
-8 -7 -3 0.03 1.43
-8 7 3 2.44 1.43
8 7 -3 2.59 1.16
-8 7 -3 4.49 1.72
8 7 3 2.61 1.31
9 7 -3 24.43 2.02
-9 7 3 27.3 2.14
-9 -7 3 29.36 4.35
9 7 3 24.62 1.88
-9 7 -3 26.39 2.38
-10 7 3 3.18 1.64
-10 7 -3 5.03 1.86
10 7 3 4.45 1.43
0 8 -3 7.86 1.35
0 8 3 8.7 1
0 8 3 9.08 1.12
-1 8 3 20.1 1.5
1 8 -3 23.98 2.06
-1 8 3 24.38 1.45
-1 8 -3 21.69 1.73
1 8 3 24.97 1.49
1 8 3 24.41 1.58
-2 -8 -3 12.24 1.55
-2 8 3 12.07 1.24
2 8 -3 8 1.41
-2 8 -3 11.4 1.5
2 8 3 11.08 1.12
2 8 3 10.43 1.19
3 8 -3 24.6 1.88
-3 8 3 21.37 1.62
-3 -8 -3 22.09 1.82
3 8 3 25.28 1.69
3 8 3 22.38 1.6
-3 8 -3 26.53 2.14
-4 8 3 9.17 1.26
-4 -8 -3 8.48 1.57
4 8 -3 9.65 1.58
4 8 3 8.07 1.24
4 8 3 8.82 1.14
-4 8 -3 9.01 1.58
-5 8 3 14.23 1.51
5 8 -3 16.22 1.77
-5 -8 -3 13.78 1.67
5 8 3 15.21 1.38
5 8 3 16.3 1.51
-5 8 -3 16.07 1.84
-6 8 3 5.42 1.37
6 8 -3 9.02 1.71
-6 -8 -3 4.98 1.52
6 8 3 5.66 1.2
-6 8 -3 4.59 1.65
-7 8 3 14.13 1.73
7 8 3 13.2 1.49
-7 8 -3 12.95 1.93
-8 8 3 3.96 1.58
-8 8 -3 5.1 1.78
8 8 3 6.26 1.36
-9 8 3 10.39 1.87
9 8 3 11.33 1.6
-9 8 -3 8.64 1.93
0 9 -3 9.71 1.58
0 9 3 6.74 1.22
-1 9 3 7.27 1.23
1 9 -3 6.64 1.5
-1 9 -3 9.46 1.59
1 9 3 9.93 1.32
2 9 -3 0.39 1.36
-2 9 3 0.4 0.98
-2 9 -3 -0.49 1.38
2 9 3 0.94 1.06
3 9 -3 11.85 1.75
-3 9 3 10.25 1.32
-3 9 -3 10.64 1.71
3 9 3 12.44 1.45
-4 9 3 0.58 1.1
4 9 -3 0.07 1.47
-4 9 -3 2.4 1.52
4 9 3 1.3 1.19
-5 9 3 5.3 1.31
5 9 -3 7.79 1.78
-5 9 -3 5.83 1.74
5 9 3 6.13 1.38
-6 9 3 5.94 1.44
6 9 -3 7.08 1.83
-6 9 -3 7.32 1.84
-7 9 3 3.16 1.46
-7 9 -3 7.01 1.9
-8 9 3 0.73 1.4
0 10 -3 3.57 1.52
0 10 3 0.86 1.16
1 10 -3 12.38 1.77
-1 10 3 10.3 1.42
-1 10 -3 10.76 1.81
1 10 3 12.5 1.53
-2 10 3 9.68 1.42
2 10 -3 7.21 1.68
-2 10 -3 6.79 1.72
2 10 3 7.27 1.43
3 10 -3 12.05 1.93
-3 10 3 15.56 1.58
-3 10 -3 14.46 1.88
3 10 3 17 1.91
4 10 -3 9.58 1.81
-4 10 3 9.85 1.44
-4 10 -3 8.32 1.75
5 10 -3 9.64 1.9
-5 10 3 8.4 1.48
-5 10 -3 7.72 1.83
-6 10 3 2.28 1.37
6 10 -3 1.81 1.87
-6 10 -3 -1.49 1.76
0 11 -3 5.01 1.68
1 11 -3 14.21 2.01
-1 11 -3 9.51 1.81
2 11 -3 5.44 1.68
-2 11 -3 5.9 1.83
3 11 -3 5.87 2.38
-3 11 -3 4.28 2.79
0 0 4 300.65 4.89
0 0 -4 302.1 4.87
0 0 4 302.14 5.04
-1 0 -4 -0.41 0.49
1 0 4 0.01 0.49
1 0 4 -0.27 0.61
1 0 -4 -0.26 0.5
-1 0 4 -0.82 0.63
2 0 -4 161.37 2.97
2 0 4 163.23 3
-2 0 -4 165.59 2.63
-2 0 4 172.27 3.3
-2 0 -4 166.07 2.95
3 0 4 -0.05 0.59
-3 0 4 -0.21 0.77
-3 0 -4 -0.5 0.52
3 0 -4 0.4 0.55
4 0 4 141.07 2.81
4 0 4 144.96 2.75
4 0 -4 139.65 2.76
-4 0 4 145.32 3.19
5 0 4 -0.38 0.65
5 0 -4 -0.78 0.59
5 0 -4 0.68 0.63
5 0 4 -0.16 0.64
-5 0 4 0.26 0.94
6 0 4 97.61 2.57
6 0 -4 103.06 2.36
6 0 -4 101.97 2.47
6 0 4 101.19 2.4
-6 0 4 100.25 2.9
7 0 -4 0.52 0.72
7 0 4 0.02 0.88
7 0 -4 -0.5 0.77
-7 0 4 1.4 1.22
7 0 4 -0.16 0.79
8 0 4 49.55 1.99
8 0 4 51.47 2.16
8 0 -4 54.99 1.89
8 0 -4 49.83 2.01
-8 0 4 50.06 2.62
9 0 -4 -1.47 0.92
9 0 4 -1 1.06
9 0 -4 0.52 0.89
9 0 4 0.81 1.04
-9 0 -4 -0.89 0.75
-9 0 4 -0.8 1.5
10 0 -4 39.01 2.17
10 0 4 46.34 2.21
-10 0 4 39.43 3
-10 0 -4 43.1 2.78
11 0 4 -2.58 1.19
-11 0 -4 2.79 1.76
11 0 -4 -0.27 1.23
-11 0 4 -1.38 1.9
12 0 4 27.95 2.13
-12 0 4 31.18 3
12 0 -4 29.07 2.32
-12 0 -4 29.89 2.79
13 0 4 -0.67 2.03
-13 0 -4 0.11 2.26
0 -1 -4 101.14 2.01
0 1 -4 101.78 2.05
0 -1 4 98.61 2.09
0 1 4 102.47 2.09
0 1 4 97.98 2.24
0 1 -4 100.03 1.73
0 -1 4 100.01 1.96
1 -1 4 10.36 0.82
-1 -1 -4 9.8 0.68
-1 1 4 11.76 1.08
1 1 -4 11.91 0.64
1 1 -4 9.77 0.73
1 -1 -4 10.73 0.87
-1 1 -4 12.07 0.59
1 1 4 11.22 1.03
-1 1 -4 11.42 0.92
-1 -1 4 11.09 0.88
1 1 4 12.14 0.9
2 1 -4 160.29 2.9
-2 -1 -4 157.7 2.81
2 -1 4 161.06 2.84
-2 1 4 160.22 3.23
-2 1 -4 159.36 2.67
2 -1 -4 155.84 2.92
-2 -1 4 163.06 3.1
2 1 4 154.82 2.97
-2 1 -4 162.43 2.93
3 -1 4 55.75 1.5
3 1 -4 56.96 1.5
-3 -1 -4 56.13 1.39
-3 1 4 58.29 1.89
-3 -1 4 57.05 1.84
3 -1 -4 58.39 1.58
3 1 4 55.18 1.62
-3 1 -4 57.18 1.34
4 -1 4 126.86 2.58
4 1 -4 131.04 2.56
-4 -1 -4 125.13 2.41
4 -1 4 128.23 2.67
-4 1 4 123.74 2.95
4 -1 -4 133.59 2.6
4 -1 -4 130.24 2.63
-4 -1 4 127.01 2.97
4 1 4 131.01 2.72
4 1 4 132.96 2.47
5 -1 4 6.24 0.89
-5 -1 -4 5.12 0.65
5 -1 4 6.81 0.84
-5 1 4 6.12 1.12
5 1 -4 6.63 0.75
-5 -1 4 5.27 1.14
5 -1 -4 6.49 0.82
5 1 4 5.64 0.72
5 1 4 7.22 0.91
5 -1 -4 6.74 0.8
6 -1 4 47.77 1.83
-6 -1 -4 49.15 1.43
6 1 -4 47.59 1.71
6 -1 4 47.35 1.78
6 1 -4 47.58 1.57
-6 1 4 46.8 2.14
6 1 4 50.13 1.57
6 1 4 48.15 1.79
6 -1 -4 47.16 1.67
6 -1 -4 49.09 1.69
-6 -1 4 46.31 2.17
7 1 -4 4.41 0.91
7 -1 4 4.26 0.99
-7 1 4 4.8 1.32
-7 -1 -4 3.28 0.89
7 -1 4 4.53 0.99
7 -1 -4 5.34 0.93
7 1 4 4.23 0.97
7 -1 -4 3.63 0.91
-7 -1 4 2.96 1.3
8 1 -4 44.78 1.92
8 1 -4 43.94 1.69
-8 1 4 46.46 2.53
-8 -1 -4 43.32 1.8
8 -1 4 42.51 1.99
8 -1 4 46.61 2.03
8 -1 -4 43.36 1.86
8 1 4 45.98 1.83
8 1 4 44.74 2.12
-8 -1 4 44.94 2.59
8 -1 -4 42.77 1.87
9 1 -4 13.98 1.14
9 -1 4 11.11 1.39
-9 -1 -4 14.13 1.25
-9 1 4 15.46 1.98
9 1 -4 13.99 1.4
9 1 4 13.6 1.5
9 -1 -4 15.55 1.47
9 1 4 12.72 1.28
-9 -1 4 14.91 1.98
-9 1 -4 13.06 1.67
9 -1 -4 14.87 1.29
-10 1 4 39.58 2.93
10 1 -4 38.01 2.14
10 -1 4 41.72 2.29
10 1 4 41.33 2.41
-10 1 -4 40.98 2.69
-10 -1 4 36.72 3.07
10 1 4 41.25 2.07
10 -1 -4 38.11 2.15
-11 -1 -4 5.89 1.87
11 -1 4 2 1.37
-11 1 4 3.97 2.04
11 1 -4 2.95 1.28
-11 -1 4 1.48 2.06
11 -1 -4 0.57 1.3
11 1 4 0.08 1.18
-11 1 -4 2.69 1.8
12 -1 4 14.5 1.86
-12 -1 -4 20.25 2.59
-12 1 4 12.13 2.52
12 1 -4 13.28 1.82
-12 -1 4 10.26 2.42
12 -1 -4 11.08 1.66
12 1 4 13.27 1.69
0 2 4 64.9 1.65
0 2 -4 66.03 1.62
0 2 4 63.12 1.83
0 2 -4 65.38 1.42
0 -2 -4 64.37 1.53
0 -2 4 65.01 1.4
0 -2 4 64.76 1.51
1 2 -4 9.86 0.72
-1 2 4 11.74 1.01
-1 -2 -4 10.23 0.8
1 2 -4 9.66 0.76
-1 2 4 9.44 0.37
1 -2 4 9.05 0.74
1 2 4 8.94 0.73
-1 2 -4 10.04 0.77
1 -2 -4 10.47 0.74
-1 2 -4 10.54 0.75
-1 -2 4 9.89 0.93
-2 2 4 99.78 2.43
-2 -2 -4 97.76 1.94
2 2 -4 99.33 2.07
-2 2 4 99.9 1.74
2 2 -4 100.45 2.02
2 -2 4 98.17 1.92
2 2 4 100.69 2.2
2 -2 -4 101.34 2.13
-2 2 -4 100.62 2
-2 -2 4 100.95 2.24
-3 2 4 0.98 0.86
-3 -2 -4 0.81 0.46
3 2 -4 -0.36 0.57
3 -2 4 1.57 0.57
3 2 -4 0.91 0.54
3 -2 -4 1.71 0.66
-3 -2 4 0.62 0.84
3 -2 -4 0.19 0.52
-3 2 -4 0.15 0.58
3 2 4 0.73 0.66
4 -2 4 70.91 1.72
4 2 -4 71.38 1.72
-4 2 4 69.7 2.24
-4 -2 -4 71.45 1.56
4 -2 -4 70.39 1.89
4 -2 -4 70.57 1.75
-4 2 -4 71.41 1.8
-4 -2 4 73.77 2.18
4 2 4 72.44 1.97
5 -2 4 1.58 0.73
-5 2 4 4.84 1.17
5 2 -4 3.31 0.64
-5 -2 -4 2.28 0.52
-5 2 -4 1.97 0.82
-5 -2 4 1.8 1.09
5 2 4 2.48 0.82
5 -2 -4 3.95 0.74
5 -2 -4 1.9 1.08
5 2 4 3.34 0.59
6 -2 4 34.98 1.55
-6 -2 -4 35.64 1.64
6 -2 4 33.76 1.68
-6 2 4 33.56 1.95
6 2 -4 33.4 1.33
-6 -2 -4 30.39 1.09
-6 2 -4 32.08 1.61
6 2 4 31.68 1.61
6 -2 -4 30.63 1.53
-6 -2 4 30.41 1.99
6 -2 -4 32.19 1.47
6 2 4 33.12 1.28
-7 -2 -4 0.09 0.89
7 -2 4 2.41 1.05
7 2 -4 2.46 0.91
7 2 -4 2.97 0.71
7 -2 4 1.65 0.93
-7 2 4 1.82 1.2
7 2 4 1.47 0.73
7 -2 -4 2.44 0.85
-7 -2 4 1.43 1.32
7 2 4 2.92 1.02
7 -2 -4 4.64 0.93
8 -2 4 34.58 1.97
-8 2 4 31.83 2.34
8 2 -4 33.35 1.81
8 2 -4 33.63 1.46
-8 -2 -4 36.76 1.81
8 2 4 33.23 1.56
8 2 4 34.26 1.99
8 -2 -4 33.99 1.77
-8 2 -4 32.85 1.99
8 -2 -4 35.31 1.87
-8 -2 4 34.48 2.5
-9 2 4 -0.32 1.48
-9 -2 -4 0.38 0.96
9 2 -4 0.2 1.06
9 -2 4 1.17 1.18
9 2 4 -1.19 1.1
-9 -2 4 0.3 1.66
9 2 4 0.77 0.88
-9 2 -4 0.02 1.28
9 -2 -4 -0.37 1.05
9 -2 -4 -0.1 1
10 2 -4 25.74 1.99
10 -2 4 28.8 2.22
-10 2 4 29.17 2.5
-10 -2 -4 25 1.84
10 2 4 26.47 2
10 -2 -4 27.6 2
-10 -2 4 25.96 2.52
10 2 4 30.44 2.22
11 2 -4 0.08 1.18
11 -2 4 -0.74 1.32
-11 2 4 0.3 1.85
-11 -2 -4 2.87 1.77
11 -2 -4 0.29 1.31
-11 -2 4 0.61 2.09
-12 -2 -4 12.51 2.37
12 2 -4 5.97 1.52
-12 2 4 10.33 2.32
12 -2 4 8.75 1.86
-12 2 -4 8.15 1.89
12 -2 -4 9.28 1.64
-12 -2 4 9.97 2.47
0 3 4 141.89 3.02
0 -3 4 138.61 2.33
0 -3 -4 142.75 2.76
0 3 -4 139.2 2.65
0 3 4 137.99 2.25
0 -3 -4 142.12 2.2
0 -3 -4 140.47 2.61
0 -3 4 135.57 2.4
0 3 4 144.14 2.79
0 3 -4 140.47 2.71
-1 3 4 41.06 0.91
1 3 -4 40.93 1.33
-1 -3 -4 41 1.43
1 -3 4 39.04 0.97
-1 -3 -4 40.62 1.2
-1 3 4 40.75 1.57
1 3 -4 41.16 1.31
1 -3 -4 40.07 0.94
-1 3 -4 40.02 1.3
1 -3 -4 40.13 1.29
1 3 4 42.69 1.41
1 -3 -4 40.21 1.32
-1 -3 4 39.55 1.23
1 3 4 40.34 0.87
-2 3 4 96.19 2.48
2 3 -4 96.76 2.13
-2 -3 -4 96.65 2.29
-2 3 4 96.92 1.8
-2 -3 -4 99.45 1.93
2 3 -4 97.94 2.08
2 -3 4 97.69 1.78
2 -3 -4 97.03 2.17
-2 3 -4 99.11 2.13
2 -3 -4 96.95 2.01
2 -3 -4 96.91 1.83
-2 -3 4 98.45 2.19
2 3 4 96.12 2.24
3 -3 4 25.72 0.96
-3 3 4 26.08 0.92
-3 -3 -4 25.86 1.38
3 3 -4 25.64 1.29
-3 -3 -4 26.54 0.95
-3 3 4 27.54 1.52
3 3 -4 27.8 1.13
3 -3 -4 26.24 1.27
3 -3 -4 26.04 1
3 3 4 27.7 1.37
3 -3 -4 28.11 1.03
-3 -3 4 26.12 1.42
-3 3 -4 27.78 1.27
4 3 -4 86.65 2.14
4 -3 4 84.37 1.82
-4 -3 -4 85.57 1.69
4 3 -4 87.21 1.92
-4 3 4 82.64 2.67
-4 3 -4 82.04 2.12
4 -3 -4 84.15 1.92
4 -3 -4 85.34 1.67
-4 -3 4 83.59 2.4
5 -3 4 11.67 0.85
5 -3 4 12.32 1.23
-5 -3 -4 12.9 0.91
-5 -3 -4 12.52 1.21
5 3 -4 10.77 0.81
-5 3 4 10.52 1.35
-5 3 -4 12.51 1.11
-5 -3 4 12.28 1.37
5 -3 -4 14.18 1
5 3 4 13.3 1.15
5 -3 -4 13.86 1.08
-5 3 -4 14.19 1.03
5 3 4 11.62 0.82
-6 3 4 63.72 2.45
-6 -3 -4 70.26 2.26
6 -3 4 66.3 2.24
6 3 -4 71.47 1.77
6 -3 -4 70.22 2.02
-6 3 -4 70.94 2.2
6 -3 -4 65.62 2.09
-6 -3 4 68.62 2.57
6 3 4 66.34 2.16
6 3 4 73.23 2.27
7 3 -4 20.69 1.58
-7 3 4 20.04 1.76
-7 -3 -4 19.99 1.63
7 -3 4 17.55 1.48
7 3 -4 19.51 1.19
7 -3 -4 17.35 1.46
-7 3 -4 20.95 1.55
-7 -3 4 21.19 1.91
7 3 4 20.67 1.48
7 -3 -4 21.01 1.63
8 3 -4 36.63 1.94
-8 3 4 35.37 2.4
8 -3 4 39.28 2.19
-8 -3 -4 38.88 1.97
8 -3 -4 43.07 2.07
-8 3 -4 40.87 2.21
8 -3 -4 39.37 1.89
8 3 4 35.42 2.06
-8 -3 4 35.92 2.64
9 3 -4 6.42 1.21
-9 3 4 5.31 1.69
-9 -3 -4 5.26 1.21
9 -3 4 5.01 1.41
9 3 4 4.35 1.25
-9 -3 4 5.93 1.86
-9 3 -4 2.25 1.44
9 -3 -4 5.37 1.19
10 -3 4 24.29 1.97
-10 -3 -4 24.89 1.93
10 3 -4 27.92 2.06
-10 3 4 27.49 2.51
10 -3 -4 30.24 2.09
-10 -3 4 31.98 2.76
-10 3 -4 29.57 2.19
10 3 4 29.06 2.1
11 -3 4 2.68 1.59
11 3 -4 2.25 1.33
-11 3 4 0.9 1.88
11 -3 -4 1.14 1.29
-11 -3 4 -1.74 2.05
-11 3 -4 3.75 1.71
11 3 4 0.94 1.53
12 3 -4 19.72 1.98
-12 -3 -4 19.81 2.55
-12 3 4 23.66 2.68
12 -3 4 17.02 2.09
12 -3 -4 19.95 1.97
-12 -3 4 15.45 2.78
-12 3 -4 21.29 2.26
0 4 4 69.23 1.84
0 -4 -4 71.64 1.71
0 4 -4 70.09 1.87
0 4 4 70.22 2.11
0 -4 -4 68.88 1.89
0 4 4 67.62 1.41
-1 4 4 6.31 0.53
-1 -4 -4 6.87 0.69
1 4 -4 6.52 0.74
1 4 -4 4.68 0.83
-1 4 4 6.41 0.97
-1 4 4 7.75 0.82
-1 -4 -4 6.84 0.94
1 -4 -4 5.93 0.79
-1 -4 4 6.1 0.63
-1 4 -4 5.55 0.83
1 4 4 5.72 0.49
1 4 4 7.26 0.83
-1 -4 4 5.92 0.52
1 -4 -4 5.74 0.47
1 -4 -4 5.56 0.73
-2 -4 -4 85.58 1.78
2 4 -4 86.66 1.96
-2 -4 -4 80.15 2.21
-2 4 4 80.25 2.37
2 4 -4 84.86 2.12
-2 4 4 85.77 1.75
-2 4 -4 84.67 2.15
2 -4 -4 85.23 1.65
2 4 4 86.18 2.17
2 -4 -4 84.06 1.95
2 -4 -4 84.72 2.06
2 4 4 87.06 1.72
-2 -4 4 80.54 1.97
-3 -4 -4 27.48 0.99
3 4 -4 29.96 1.46
-3 4 4 29.45 1.08
-3 -4 -4 29.28 1.53
3 4 -4 28.16 1.22
-3 4 4 26.64 1.98
3 -4 -4 30.67 1.06
3 -4 -4 30.59 1.14
-3 4 -4 27.52 1.46
-3 -4 4 28.08 1.48
-4 4 4 64.01 2.26
4 4 -4 65.25 1.68
-4 4 4 64.72 1.66
-4 -4 -4 64.14 2.11
4 4 4 66.89 2.05
-4 -4 4 63.49 2.16
4 -4 -4 65.58 1.97
4 -4 -4 65.21 1.67
-4 4 -4 65.91 2.13
-5 4 4 2.77 0.72
5 4 -4 1.86 0.65
5 4 -4 3.26 0.96
-5 -4 -4 1.85 0.99
-5 4 4 4.46 1.2
5 -4 -4 3.2 0.85
5 -4 -4 2.12 0.74
5 4 4 2.89 0.9
-5 -4 4 0.94 1.15
-5 4 -4 1.95 0.98
-6 -4 -4 42.3 1.96
-6 4 4 38.74 2.24
-6 4 4 40.41 1.62
6 -4 4 39.46 2
6 4 4 39.42 1.85
-6 4 -4 43.78 2.02
6 -4 -4 40.26 1.63
-6 -4 4 38.15 2.24
6 -4 -4 40.12 1.87
-7 4 4 4.82 0.98
-7 4 4 4.61 1.44
-7 -4 -4 5.18 1.18
7 -4 4 3.9 1.22
7 -4 -4 4.21 1.06
-7 -4 4 3.13 1.53
7 4 4 2.75 1.04
-7 4 -4 3.21 1.22
7 -4 -4 3.2 0.99
-8 -4 -4 41.22 2.12
-8 4 4 38.71 2.57
8 4 -4 37.13 2.01
8 -4 4 36.44 2.27
-8 -4 4 38.79 2.8
8 -4 -4 42.75 2.14
-8 4 -4 37.61 2.32
8 -4 -4 40.81 1.93
8 4 4 38.65 2.17
-9 -4 -4 7.34 1.41
9 4 -4 9.9 1.47
9 -4 4 9.81 1.57
-9 4 4 10.46 1.91
-9 4 -4 8.52 1.65
9 4 4 10.97 1.51
9 -4 -4 7.32 1.35
-9 -4 4 9.96 2.1
10 4 -4 21.64 1.85
10 -4 4 18.62 2
-10 -4 -4 22.65 1.83
-10 4 4 24.56 2.36
10 4 4 22.51 1.99
-10 -4 4 26.35 2.69
-10 4 -4 22.74 2.09
10 -4 -4 24.54 2.04
-11 4 4 2.59 1.4
11 4 -4 1.86 1.31
-11 4 4 2.2 1.89
11 -4 4 0.63 1.58
-11 4 -4 -1.82 1.69
-11 -4 4 1.21 2.2
11 -4 -4 -0.23 1.3
11 4 4 0.85 1.51
-12 4 4 12.59 2.33
-12 4 4 12.1 1.87
12 4 -4 13.86 2.51
12 -4 -4 12.99 1.91
-12 -4 4 15.81 3.78
-12 4 -4 10.38 2.14
0 -5 -4 85.53 2.27
0 5 -4 91.26 2.36
0 5 4 93.52 2.34
0 -5 -4 90.8 2.06
0 5 4 90.82 1.89
1 5 -4 0.57 0.68
-1 5 4 -0.03 0.83
-1 5 4 -0.27 0.46
1 5 -4 0.61 1.19
-1 5 4 0.64 1.29
-1 -5 -4 1.39 0.97
-1 -5 -4 -0.21 0.56
1 -5 -4 0.89 0.68
1 -5 -4 0.35 0.76
1 5 4 1.5 0.52
-1 5 -4 0.41 0.89
-2 5 4 27.98 1.11
-2 5 4 28.94 1.84
-2 -5 -4 27.48 1.07
2 5 -4 28.87 1.31
2 5 -4 27.54 1.6
-2 -5 -4 28 1.59
-2 5 4 26.9 1.62
2 -5 -4 27.63 1.31
2 5 4 28.18 1.07
2 5 4 26.11 1.45
-3 5 4 1.81 0.62
-3 -5 -4 1.36 0.95
-3 5 4 2.24 1.03
3 5 -4 0.7 0.91
3 5 -4 1.97 0.69
3 -5 -4 3.42 0.86
-3 -5 4 1.37 0.92
3 5 4 2.68 0.62
3 -5 -4 2.67 0.73
3 5 4 3.29 0.88
-3 5 -4 2.53 0.97
-4 -5 -4 21.56 1.58
4 5 -4 20.47 1.64
-4 5 4 19.37 1.58
-4 5 4 18.93 1.17
4 5 -4 18.75 1.17
-4 -5 4 17.72 1.62
4 -5 -4 20.34 1.12
4 5 4 19.25 1.49
-4 5 -4 19.31 1.44
4 -5 -4 20.77 1.51
-5 5 4 0.83 1.12
5 5 -4 0.93 1.06
-5 -5 -4 0.96 1.02
-5 5 4 -0.29 0.72
5 -5 -4 0.39 0.77
5 5 4 -0.19 0.87
5 -5 -4 1.21 0.93
-5 5 -4 0.63 1.06
-6 5 4 52.04 2.46
-6 5 4 50.97 1.86
-6 -5 -4 47.67 2.19
6 5 4 52.13 2.12
-6 -5 4 51.34 2.52
6 -5 -4 53.44 2.17
-6 5 -4 54.18 2.31
6 -5 -4 50 1.81
-7 5 4 1.28 1.31
-7 -5 -4 0.9 1.14
-7 5 4 1.28 0.93
7 5 4 1.63 1.11
-7 -5 4 0.66 1.5
7 -5 -4 -0.11 0.94
-7 5 -4 -0.94 1.25
-8 5 4 18.6 1.55
-8 5 4 15.98 1.89
8 5 -4 14.47 1.54
8 -5 4 14.39 1.86
-8 -5 -4 14.44 1.61
-8 5 -4 17.59 1.85
-8 -5 4 18.3 2.18
8 -5 -4 16.26 1.47
8 5 4 17.98 1.64
-9 5 4 -0.22 1.15
9 -5 4 -0.93 1.44
-9 -5 -4 1.97 1.38
-9 5 4 3.57 1.62
9 5 -4 1.29 1.2
9 -5 -4 1.35 1.15
9 5 4 2.34 1.34
-9 5 -4 1.28 1.57
-9 -5 4 -0.4 1.86
10 -5 4 5.73 1.64
10 5 -4 7.1 1.46
-10 5 4 7.66 1.51
-10 5 4 9.18 1.87
-10 -5 -4 5.81 1.5
-10 5 -4 8.82 1.88
10 -5 -4 6.08 1.44
10 5 4 7.19 1.62
-10 -5 4 4.07 2.16
-11 5 4 0.32 1.42
-11 5 4 2.19 1.73
11 5 -4 0.2 1.29
11 -5 4 0.01 1.69
11 5 4 -1.71 1.46
-11 5 -4 -1.46 1.68
-11 -5 4 -0.42 2.19
11 -5 -4 0.67 1.4
0 6 4 73.79 2.14
0 -6 -4 71.98 2.23
0 6 4 77.47 1.86
0 -6 -4 75.61 1.95
0 6 -4 76.92 2.37
-1 -6 -4 13.98 1.08
-1 6 4 12.96 1.06
1 6 -4 8.84 1.48
-1 6 4 14.8 1.03
1 6 -4 10.14 1.22
-1 -6 -4 12.22 1.24
1 -6 -4 14.28 1.19
1 6 4 15.05 1.16
-1 6 -4 13.83 1.27
1 6 4 13.36 1.01
1 -6 -4 14.68 1.18
-2 -6 -4 27.18 1.71
2 6 -4 29.23 1.42
2 6 -4 30.89 1.79
-2 6 4 29.59 1.57
-2 6 4 32.2 1.84
-2 6 4 31.55 1.27
2 -6 -4 30.1 1.6
2 6 4 30.67 1.59
2 -6 -4 29.54 1.52
-2 6 -4 31.68 1.81
2 6 4 30.68 1.26
-3 6 4 3.42 0.95
-3 -6 -4 4.87 1.08
-3 6 4 3.55 1.14
3 6 -4 5.29 0.8
3 6 -4 2.95 1.09
3 -6 -4 4.67 1.02
3 -6 -4 3.8 0.89
-3 6 -4 5.01 1.17
3 6 4 4.97 0.78
3 6 4 4.73 0.98
-4 6 4 25.96 1.4
4 6 -4 25.78 1.85
-4 6 4 22.65 1.86
-4 -6 -4 25.48 1.81
4 -6 -4 26.43 1.73
4 6 4 24.99 1.64
-4 6 -4 23.06 1.86
-5 -6 -4 9.15 1.32
-5 6 4 8.3 1.44
5 6 -4 5.58 1.32
-5 6 4 7.63 1.05
5 6 4 10.46 1.26
-5 6 -4 6.84 1.34
5 -6 -4 6.84 1.22
6 6 -4 41.33 2.31
-6 -6 -4 40.77 2.26
-6 6 4 42.02 1.9
-6 6 4 45.45 2.46
-6 6 -4 42.1 2.41
6 6 4 41.06 2.09
-6 -6 4 42.27 2.58
-7 6 4 6.89 1.19
-7 6 4 7.13 1.54
-7 -6 -4 8.35 1.48
-7 6 -4 9.98 1.69
-7 -6 4 7.73 1.77
7 6 4 5.46 1.3
-8 -6 -4 20.72 1.92
-8 6 4 16.32 1.58
-8 6 4 16.54 1.87
8 6 -4 12.09 1.43
-8 -6 4 17.57 2.2
-8 6 -4 17.43 1.96
8 6 4 15.21 1.64
8 -6 -4 15.03 1.9
-9 6 4 4.51 1.6
-9 -6 -4 1.68 1.43
-9 6 4 -0.4 1.25
9 6 -4 1.64 1.26
-9 6 -4 1.96 1.7
9 -6 -4 1.43 1.44
-9 -6 4 -1.8 1.93
9 6 4 1.93 1.38
-10 6 4 8.98 1.66
10 6 -4 9.42 1.51
-10 6 4 12.37 1.91
-10 -6 -4 9.96 1.84
-10 6 -4 9.14 1.97
10 6 4 11.41 1.72
-10 -6 4 8.99 2.3
-11 -6 4 -0.23 3.38
0 -7 -4 34.48 1.91
0 7 -4 36.09 1.99
0 7 4 34.12 1.46
0 7 4 35.47 1.66
1 7 -4 -0.02 0.85
-1 7 4 1.52 0.84
1 7 -4 -1.62 1.06
-1 -7 -4 -1.24 1.04
-1 7 4 0.65 0.7
-1 7 -4 1.61 1.16
1 7 4 0.12 0.84
1 7 4 -0.23 0.72
1 -7 -4 -0.21 1.03
-2 7 4 39.37 1.76
-2 -7 -4 37.51 2.02
-2 7 4 41.47 1.58
2 7 -4 41.59 1.69
2 7 -4 38.8 2.13
2 7 4 37.36 1.54
-2 7 -4 39.59 2.12
2 7 4 37.92 1.83
-3 7 4 6.79 0.95
3 7 -4 4.19 1.31
-3 7 4 4.42 1.21
-3 7 4 4.51 0.98
-3 -7 -4 5.55 1.24
-3 7 -4 5.21 1.32
3 7 4 5.17 0.94
3 7 4 3.69 1.02
-4 -7 -4 30.85 2.1
-4 7 4 28.72 1.75
-4 7 4 32.9 2.07
-4 7 4 29.57 1.6
4 7 -4 30.14 2.18
4 7 4 31.32 1.89
-4 7 -4 31.77 2.21
4 7 4 29.85 1.56
-5 7 4 1.48 0.93
-5 -7 -4 0.57 1.18
5 7 -4 3.64 1.43
-5 7 4 -0.31 1.17
5 7 4 0.09 0.99
-5 7 -4 -2.18 1.31
6 7 -4 19.47 1.91
-6 7 4 23.44 1.84
-6 7 4 26.04 2.19
-6 -7 -4 22.66 1.87
6 7 4 24.83 1.74
-6 7 -4 22.07 2
-7 -7 -4 1.82 1.43
-7 7 4 0.18 1.22
-7 7 4 2.81 1.39
-7 7 -4 -0.31 1.57
7 7 4 1.85 1.21
-8 7 4 27.32 2.43
-8 7 4 20.91 1.84
-8 -7 -4 19.18 2.01
8 7 -4 15.57 1.58
-8 7 -4 19.76 2.13
8 7 4 22.82 1.85
-9 -7 -4 0.88 1.57
-9 7 4 1.41 1.53
9 7 -4 -0.31 1.27
9 7 4 1.47 1.36
-9 7 -4 2.19 1.78
-10 -7 -4 8.77 1.91
-10 7 4 11.81 2.35
10 7 -4 7.63 1.5
10 7 4 8.28 1.85
-10 7 -4 10.87 3.12
0 8 -4 40.94 2.36
0 -8 -4 38.33 2.14
0 8 4 38.58 1.79
0 8 4 38.75 1.82
1 8 -4 4.92 1.42
-1 -8 -4 7.26 1.41
-1 8 4 5.17 0.97
1 8 -4 4.5 1.07
-1 8 4 3.7 0.99
1 8 4 6.78 1.1
1 8 4 7.36 1.32
-1 8 -4 4.32 1.41
-2 -8 -4 10.57 1.53
2 8 -4 9.86 1.57
-2 8 4 10.27 1.11
-2 8 4 12.06 1.19
-2 8 -4 8.05 1.55
2 8 4 9 1.17
3 8 -4 3.02 1.44
-3 -8 -4 3.26 1.37
-3 8 4 4.74 0.99
-3 8 4 4.85 1.04
3 8 4 2.3 0.99
-3 8 -4 3.27 1.46
4 8 -4 9.47 1.72
-4 8 4 7.62 1.16
-4 -8 -4 8.31 1.56
-4 8 4 9.61 1.19
4 8 4 9.48 1.26
-4 8 -4 11.16 1.67
5 8 -4 2.2 1.52
-5 8 4 3.75 1.12
-5 8 4 1.89 1.45
-5 -8 -4 4.4 1.6
-5 8 4 2.54 1.32
5 8 4 1.58 1.1
-5 8 -4 3.64 1.65
-6 8 4 25.74 1.93
6 8 -4 26.46 2.19
-6 -8 -4 24.02 2.09
-6 8 -4 25.58 2.23
6 8 4 26.87 2.13
-7 -8 -4 0.19 1.55
-7 8 4 2.52 1.44
7 8 4 3.28 1.26
-7 8 -4 3.35 1.81
-8 -8 -4 5.12 1.8
8 8 -4 4.14 1.93
-8 8 -4 7.69 1.88
8 8 4 6.66 1.44
9 8 4 1.97 1.42
0 9 -4 9.12 1.68
1 9 -4 1.09 1.5
-1 9 -4 -0.56 1.46
2 9 -4 8.5 1.69
-2 9 -4 6.92 1.65
3 9 -4 1.59 1.55
-3 9 -4 2.43 1.57
4 9 -4 9.89 1.84
-4 9 -4 8.94 1.81
5 9 -4 -1.34 1.59
-5 9 -4 1.2 1.62
6 9 -4 8.88 1.91
-6 9 -4 9.58 1.88
-7 9 -4 -0.13 1.71
0 10 -4 7.66 1.77
1 10 -4 3.9 1.71
-1 10 -4 0.04 1.6
2 10 -4 11.34 1.91
-2 10 -4 9.93 1.88
3 10 -4 12.09 1.98
-3 10 -4 12.3 1.89
4 10 -4 7.16 1.82
-4 10 -4 7.69 1.84
5 10 -4 2.23 1.76
-5 10 -4 3.69 1.73
0 0 5 -0.54 0.74
0 0 5 -0.33 0.6
0 0 -5 0.01 0.61
1 0 5 22.55 1.15
-1 0 5 20.91 1.35
-1 0 -5 20.69 1.17
1 0 -5 21.12 1.15
1 0 5 21.16 1.31
2 0 5 -0.24 0.65
2 0 -5 -0.24 0.64
-2 0 -5 0.53 0.64
-2 0 -5 -0.36 0.3
-2 0 5 -0.26 0.85
-3 0 -5 69.82 1.78
3 0 -5 65.2 1.82
3 0 5 67.36 1.89
-3 0 -5 68.06 1.38
-3 0 5 64.75 2.19
-4 0 5 -1.32 0.91
4 0 -5 0.67 0.68
-4 0 -5 -0.25 0.67
4 0 5 -0.48 0.73
-5 0 -5 26.81 1.4
5 0 -5 27.54 1.47
-5 0 5 27.25 1.87
5 0 5 27.96 1.91
6 0 -5 0.14 0.79
6 0 5 1.06 0.82
-6 0 5 -0.5 1.11
6 0 -5 0.06 0.82
6 0 5 1.09 0.91
7 0 -5 9.39 1.15
7 0 -5 8.38 1.04
7 0 5 10.51 1.23
7 0 5 9.72 1.12
-7 0 5 12.45 1.69
8 0 -5 -0.66 0.92
8 0 5 0.37 1.16
8 0 5 0.35 0.98
-8 0 5 -0.02 1.4
8 0 -5 1.12 1.01
-9 0 -5 22.98 1.64
9 0 5 25.12 1.82
9 0 -5 23.21 1.84
-9 0 5 22.73 2.23
9 0 5 22.98 1.85
9 0 -5 23.46 1.79
10 0 5 -1.92 1.18
-10 0 5 -0.66 1.82
10 0 5 0.12 1.37
10 0 -5 -0.3 1.02
10 0 -5 0.3 1.2
11 0 5 9.86 1.57
11 0 -5 12.87 1.7
-11 0 -5 11.78 2.08
-11 0 5 11.76 2.41
12 0 5 -1 1.39
-12 0 -5 4.97 2.3
-12 0 5 -2.93 2.08
12 0 -5 0.4 1.32
0 1 5 2.93 0.67
0 1 5 3.82 0.9
0 1 -5 3.39 0.7
0 -1 -5 4.19 0.67
0 -1 5 2.94 0.67
0 1 -5 3.96 0.43
0 -1 5 4.12 0.84
1 1 -5 33.99 0.93
-1 1 5 32.85 1.59
1 -1 5 32.05 1.29
1 1 -5 35.85 1.36
-1 -1 -5 35.01 1.27
-1 -1 5 35.16 1.5
-1 1 -5 35.33 0.87
1 1 5 34.19 1.34
-1 1 -5 35.06 1.35
1 -1 -5 34.16 1.33
2 1 -5 26.43 1.25
-2 -1 -5 23.06 1.15
-2 1 5 22.63 1.48
2 -1 5 24.38 1.23
-2 -1 5 24.73 1.49
2 -1 -5 24.71 1.25
-2 1 -5 24.33 1.28
-2 1 -5 24.73 0.85
2 1 5 24.98 1.31
-3 1 5 179.56 3.88
-3 -1 -5 183.12 3.34
3 1 -5 187.35 3.47
3 -1 5 188.64 3.43
-3 1 -5 184.56 3.5
-3 -1 5 188.13 3.81
3 1 5 186.11 3.58
-3 1 -5 184.51 3.15
3 -1 -5 184.73 3.52
4 1 -5 23.72 1.32
-4 -1 -5 24.74 1.19
4 -1 5 24.14 1.35
-4 1 -5 23.79 1.12
-4 -1 5 24.39 1.68
4 1 5 26.07 1.53
5 -1 5 36.71 1.61
-5 -1 -5 39.27 1.38
-5 1 5 34.99 1.95
5 -1 -5 34.74 1.62
5 -1 -5 36.98 1.92
-5 1 -5 37.56 1.45
-5 -1 5 36.86 2.01
5 1 5 36.67 1.71
6 -1 5 -0.7 0.91
-6 1 5 1.29 1.19
6 1 -5 0.6 0.77
-6 -1 -5 -0.18 0.67
6 -1 5 -0.11 0.89
6 1 5 0.23 0.73
-6 -1 5 -0.83 1.15
6 1 5 1.28 0.88
6 -1 -5 -0.35 0.81
6 -1 -5 0.02 0.8
7 1 -5 18.12 1.48
-7 -1 -5 15.59 1.25
7 -1 5 18.35 1.42
7 -1 5 18.06 1.39
-7 1 5 15.18 1.67
7 1 -5 17.76 1.42
7 -1 -5 19.02 1.5
7 1 5 19.74 1.38
7 -1 -5 20.14 1.62
7 1 5 18.16 1.43
-7 -1 5 18.18 1.84
8 1 -5 5.04 1.22
8 -1 5 5.66 1.25
8 -1 5 7.98 1.29
8 1 -5 6.9 1.04
-8 -1 -5 5.84 1.11
-8 1 5 6.75 1.65
-8 -1 5 5.33 1.65
8 1 5 7.16 1.11
8 1 5 8.81 1.31
8 -1 -5 6.5 1.15
8 -1 -5 7.46 1.19
9 1 -5 55.08 2.1
9 -1 5 58.47 2.44
9 -1 5 59.83 2.5
-9 -1 -5 53.52 2.18
9 1 -5 52.18 2.35
-9 1 5 55.23 3.04
9 -1 -5 52.62 2.31
9 1 5 51.93 2.58
9 -1 -5 49.9 2.28
-9 -1 5 56.78 3.16
9 1 5 52.29 2.15
10 1 -5 9.96 1.45
-10 1 5 8.32 1.98
10 -1 5 5.33 1.4
-10 -1 -5 7.2 1.83
10 -1 -5 8.77 1.3
10 1 5 9.05 1.38
10 -1 -5 8.88 1.47
10 1 5 6.67 1.55
-10 1 -5 7.65 1.78
-10 -1 5 8.21 2.1
11 -1 5 11.46 1.66
11 1 -5 14.76 1.72
-11 1 5 13.82 2.44
-11 -1 -5 17.16 2.17
11 -1 -5 13.1 1.72
-11 -1 5 12.61 2.36
-12 -1 -5 2.28 1.87
12 1 -5 -1.14 1.37
-12 1 5 -1.62 2.09
12 -1 5 -0.63 1.5
-12 -1 5 -3.05 2.13
12 -1 -5 1.9 1.41
0 2 -5 9.41 0.85
0 -2 5 10.28 0.77
0 2 -5 9.87 0.81
0 -2 5 8.63 0.89
0 -2 -5 9.11 0.8
0 2 5 7.24 0.8
0 2 5 11.9 1.14
1 2 -5 60.42 1.73
-1 2 5 63.18 2.04
1 -2 5 63.95 1.56
1 2 -5 62.34 1.47
-1 -2 -5 59.65 1.62
-1 -2 5 62.49 1.77
-1 2 -5 61.05 1.77
1 2 5 63.06 1.79
1 -2 -5 59.72 1.73
-1 2 -5 59.92 1.43
2 2 -5 1.2 0.63
2 -2 5 1.44 0.66
-2 2 5 1.1 0.91
-2 2 5 1.16 0.28
2 2 -5 2 0.69
-2 -2 -5 1.41 0.62
-2 -2 5 0.32 0.88
-2 2 -5 1.67 0.6
-2 2 -5 1.55 0.77
2 -2 -5 1.7 0.71
2 2 5 1.23 0.68
3 2 -5 125.63 2.66
3 -2 5 127.68 2.55
-3 2 5 129.89 3.34
-3 -2 -5 127.64 2.51
-3 2 -5 128.86 2.52
3 -2 -5 131.72 2.54
3 2 5 128.68 2.97
3 -2 -5 128.21 2.95
-3 -2 5 132.11 2.97
4 -2 5 0.32 0.72
4 2 -5 0.36 0.7
-4 -2 -5 1.24 0.59
-4 2 5 0.71 1.04
-4 -2 5 -0.18 1.03
4 -2 -5 -0.1 0.66
4 2 5 0.75 0.8
4 -2 -5 -0.11 0.73
-4 2 -5 -0.14 0.71
-5 2 5 50 2.31
5 -2 5 53.7 1.8
-5 -2 -5 54.93 1.52
-5 2 -5 57.34 1.75
-5 -2 5 55.99 2.31
5 2 5 54.74 1.98
5 -2 -5 52.75 1.88
6 2 -5 3.75 0.86
-6 -2 -5 3.94 0.67
-6 2 5 5.66 1.32
6 -2 5 5.48 1.05
-6 -2 -5 3.37 0.97
6 -2 -5 6.12 1.01
6 -2 -5 5.35 0.94
6 2 5 4.33 1.04
-6 -2 5 4.81 1.4
-7 -2 -5 29.72 1.83
7 -2 5 32.85 1.95
7 -2 5 35.3 1.84
7 2 -5 30.99 1.75
7 2 -5 33.08 1.59
-7 2 5 31.76 2.24
7 -2 -5 34.48 1.72
7 -2 -5 34.5 1.89
7 2 5 32.93 1.92
-7 -2 5 35.7 2.43
-7 2 -5 32.41 1.87
7 2 5 34.7 1.81
8 -2 5 0.36 1.08
8 2 -5 1.23 1.07
8 2 -5 1.74 0.85
-8 -2 -5 1.77 1.1
-8 2 5 2.12 1.44
8 -2 5 1.96 1.23
8 -2 -5 1.29 1.08
-8 -2 5 2.65 1.67
8 2 5 0.59 1.14
8 -2 -5 2.43 1.11
-8 2 -5 0.33 1.2
9 -2 5 46.34 2.38
9 2 -5 46.99 2.22
-9 -2 -5 45.53 2.21
-9 2 5 47.24 2.97
-9 -2 5 41.08 3.02
9 -2 -5 47.18 2.31
9 2 5 42.98 2.51
9 -2 -5 43.76 2.22
-9 2 -5 42.26 2.45
-10 -2 -5 -0.2 1.1
10 -2 5 0.87 1.37
10 2 -5 -0.26 1.16
-10 2 5 0.1 1.8
-10 2 -5 -1.09 1.49
-10 -2 5 -0.31 1.91
10 2 5 -0.37 1.41
10 -2 -5 0.92 1.18
10 -2 -5 -0.45 1.23
11 2 -5 17 1.78
11 -2 5 17.22 1.96
-11 2 5 20.63 2.64
11 2 5 15.31 1.88
-11 2 -5 18.06 2.06
-11 -2 5 16.15 2.54
11 -2 -5 22.4 1.94
-12 2 5 3.86 2.24
12 -2 5 -0.33 1.63
12 2 -5 1.78 1.56
-12 -2 -5 3.77 1.99
-12 2 -5 2.54 1.99
12 -2 -5 2.71 1.45
-12 -2 5 -1.04 2.19
0 3 5 51.3 1.89
0 -3 -5 54.59 1.62
0 3 -5 54.51 1.54
0 -3 5 53.61 1.44
0 -3 5 53.7 1.34
0 3 5 53.07 1.7
0 3 -5 54.17 1.71
-1 3 5 35.1 1.71
1 3 -5 34.46 1.43
-1 3 5 33.54 1.46
1 3 -5 35.37 1.34
1 -3 5 37.42 1.12
-1 -3 -5 35.72 1.34
-1 3 -5 33.55 1.31
1 3 5 33.69 1.45
-1 3 -5 37.06 1.51
-1 -3 5 37.09 1.21
-1 -3 5 33.35 1.31
1 -3 -5 36.45 0.98
1 -3 -5 34.86 1.43
2 3 -5 1.92 0.75
2 -3 5 1.33 0.56
2 3 -5 1.4 0.72
-2 -3 -5 1.61 0.61
2 -3 -5 1.4 0.75
2 -3 -5 2.13 0.54
-2 3 -5 1.81 0.73
-2 -3 5 1.07 0.86
3 3 -5 35.29 1.49
-3 -3 -5 30.95 1.61
-3 3 5 30.59 0.96
3 -3 5 32.64 1.19
-3 -3 -5 33.18 1.21
-3 3 5 31.22 1.79
3 3 -5 32.76 1.43
-3 -3 5 33.45 1.66
3 -3 -5 32.22 1.16
-3 3 -5 34.56 1.42
3 -3 -5 34.42 1.2
3 -3 -5 32.14 1.53
3 3 5 29.35 1.55
-4 3 5 2.67 0.54
4 3 -5 1.39 0.72
4 3 -5 1.66 0.85
4 -3 5 2.32 0.69
-4 3 5 1.97 1.11
-4 -3 -5 3.53 0.61
-4 -3 -5 3.17 0.96
4 -3 -5 1.65 0.79
4 -3 -5 3.13 0.67
-4 3 -5 4.61 0.9
-4 -3 5 0.65 1.1
4 -3 -5 2.53 0.71
4 3 5 2.18 0.86
-5 -3 -5 26.85 1.71
5 -3 5 29.82 1.4
-5 3 5 29.89 2.01
-5 -3 -5 28.65 1.41
5 -3 -5 27.38 1.64
5 3 5 29.83 1.72
5 -3 -5 30.02 1.62
-5 3 -5 30.26 1.97
-5 -3 5 27.45 2.01
-6 3 5 24.27 2.1
6 -3 5 28.7 1.52
-6 -3 -5 28.22 1.8
6 3 -5 26.4 1.45
6 -3 -5 26.42 1.49
-6 -3 5 30.91 2.16
6 -3 -5 26.48 1.76
6 3 5 25.47 1.8
-6 3 -5 29.36 1.73
7 3 -5 19.41 1.4
-7 3 5 17.69 1.89
-7 -3 -5 20.4 1.59
-7 -3 5 22.12 2.03
7 -3 -5 18.85 1.44
7 -3 -5 18.93 1.55
-7 3 -5 23.12 1.61
7 3 5 17.48 1.52
-8 3 5 0.25 1.47
-8 -3 -5 1.14 1.18
8 3 -5 1.99 1.14
8 -3 5 0.51 1.28
8 3 5 -0.72 1.16
8 -3 -5 0.29 1.02
-8 -3 5 0.87 1.68
-8 3 -5 1.33 1.31
8 -3 -5 0.22 1.07
-9 -3 -5 15.09 1.61
9 -3 5 13.48 1.77
9 3 -5 13.35 1.5
-9 3 5 15.56 2.15
-9 -3 5 15.03 2.24
9 3 5 11.07 1.6
9 -3 -5 14.74 1.51
-9 3 -5 14.07 1.77
9 -3 -5 13.82 1.5
10 -3 5 2.73 1.53
-10 3 5 0.53 1.82
10 3 -5 3.37 1.37
-10 -3 -5 1.24 1.24
-10 3 -5 -1.22 1.51
10 -3 -5 -0.86 1.21
-10 -3 5 -0.39 2
10 3 5 0.46 1.47
11 3 -5 10.53 1.62
11 -3 5 10.4 1.93
-11 3 5 10.69 2.24
-11 3 -5 12.54 1.95
11 3 5 11.07 1.82
11 -3 -5 10.33 1.57
-11 -3 5 8.54 2.35
-12 3 -5 5.41 1.96
0 4 -5 6.9 1.4
0 -4 -5 8.61 1
0 4 5 8.92 0.93
0 -4 -5 7.67 0.84
0 4 5 7.92 1.11
0 4 -5 9.49 0.98
-1 4 5 34.47 1.74
-1 4 5 32.71 1.53
1 4 -5 33.77 1.94
-1 -4 -5 33.43 1.35
1 4 -5 33.85 1.53
-1 -4 -5 34.7 1.65
-1 4 -5 38.35 1.52
-1 4 -5 36.22 1.63
1 -4 -5 36.22 1.47
1 4 5 35.17 1.58
1 -4 -5 35.1 1.5
2 4 -5 20.17 1.4
-2 -4 -5 14.6 1.2
2 4 -5 14.97 1.04
-2 -4 -5 16.96 1.11
-2 4 5 15.85 1.53
2 -4 -5 16.05 1.18
-2 4 -5 18.05 1.37
2 4 5 15.42 1.16
-2 -4 5 15.7 1.23
2 -4 -5 17.46 1.34
-3 -4 -5 28.02 1.65
3 4 -5 31.14 1.85
-3 -4 -5 32.43 1.22
3 4 -5 30.57 1.43
-3 4 5 30.41 1.12
-3 4 5 28.85 1.87
3 -4 -5 31.1 1.29
3 -4 -5 31.42 1.54
3 -4 -5 31.63 1.13
-3 -4 5 30.56 1.63
3 4 5 29.14 1.63
-3 4 -5 33.47 1.62
4 4 -5 16.1 1.21
-4 4 5 18.22 1.63
-4 -4 -5 14.1 1.3
-4 4 5 14.95 0.97
4 4 -5 17.38 1.33
-4 -4 5 16.36 1.43
4 -4 -5 15.72 1.21
4 4 5 14.96 1.3
4 -4 -5 14.71 1.07
-4 4 -5 15.14 1.3
-5 4 5 20.9 1.18
-5 4 5 23.46 1.93
-5 -4 -5 24.13 1.76
5 -4 -5 25.03 1.58
-5 4 -5 23.65 1.72
-5 -4 5 22.3 2
5 4 5 23.46 1.72
5 -4 -5 22.09 1.65
6 4 -5 2.3 0.79
-6 -4 -5 3.03 1.11
-6 4 5 1.69 0.77
-6 4 5 3.29 1.34
6 -4 -5 3.85 0.9
6 -4 -5 3.01 1.04
-6 -4 5 4.76 1.48
6 4 5 4.31 1.14
-6 4 -5 3.07 1.21
-7 4 5 24.22 1.52
-7 4 5 24.87 2.1
-7 -4 -5 25.46 1.98
7 4 5 25.54 1.98
7 -4 -5 24.05 1.59
7 -4 -5 28.24 1.8
-7 -4 5 24.5 2.13
-7 4 -5 26.56 2.04
-8 -4 -5 6.47 1.36
-8 4 5 6.99 1.72
-8 4 5 5.57 1.12
8 4 -5 6.41 1.29
-8 -4 5 5.22 1.85
-8 4 -5 5.41 1.49
8 -4 -5 7.91 1.4
8 -4 -5 5.88 1.21
8 4 5 6.01 1.42
-9 4 5 14.07 1.45
9 4 -5 14.19 1.66
-9 4 5 13.88 2.08
-9 -4 -5 13.83 1.62
9 4 5 13.49 1.75
-9 -4 5 12.91 2.23
9 -4 -5 15.6 1.53
-9 4 -5 10.29 1.75
-10 -4 -5 4.96 1.44
-10 4 5 6.55 2.04
-10 4 5 4.67 1.36
10 4 -5 6.1 1.54
10 -4 -5 4.59 1.34
-10 4 -5 3.52 1.71
10 4 5 4.41 1.66
-10 -4 5 2.83 2.11
-11 4 5 9.1 2.14
11 4 -5 3.65 1.47
-11 -4 5 1.05 2.19
-11 4 -5 5.37 1.87
11 4 5 5.05 1.67
11 -4 -5 5.32 1.5
0 -5 -5 8.77 1.09
0 -5 -5 8.14 0.92
0 5 -5 7.04 1.11
0 5 5 8.4 1
0 5 -5 7.91 1.02
-1 -5 -5 73.85 1.91
1 5 -5 75.71 2.27
-1 5 5 76.12 2.47
1 5 -5 74.95 2.11
-1 5 5 74.73 2.18
-1 -5 -5 72.98 2.22
1 -5 -5 77.53 2.09
-1 5 -5 73.96 2.25
1 5 5 77.34 2.23
2 5 -5 3.9 1.05
-2 5 5 2.58 1.09
-2 -5 -5 3.41 0.7
2 5 -5 3.39 0.86
-2 -5 -5 3.03 1.01
-2 5 5 4.81 0.94
2 5 5 3.55 0.94
2 -5 -5 3.54 0.87
-2 5 -5 3.15 1.03
2 -5 -5 3.35 0.89
3 5 -5 25.19 1.7
-3 -5 -5 18.87 1.6
3 5 -5 22.82 1.42
-3 5 5 19.8 1.8
3 -5 -5 21.99 1.26
3 -5 -5 21.37 1.55
3 5 5 23.03 1.66
-3 5 -5 20.38 1.68
4 5 -5 2.66 0.84
-4 5 5 2.41 1.04
-4 5 5 3.09 1.27
-4 -5 -5 3.6 1.16
4 5 -5 2.6 1.14
-4 5 -5 2.34 1.1
4 -5 -5 1.01 0.98
4 5 5 2.64 0.99
-5 5 5 47.99 2.43
-5 5 5 46.8 1.72
-5 -5 -5 44.84 2.16
5 5 -5 49.11 2.2
5 5 -5 51.32 2.29
-5 5 -5 50.15 2.2
-5 -5 5 46.29 2.29
5 -5 -5 48.45 2.11
5 5 5 46.89 2.12
-6 -5 -5 5.35 1.4
-6 5 5 5.54 0.95
-6 5 5 6.06 1.49
-6 -5 5 3.44 1.49
-6 5 -5 7.61 1.45
6 -5 -5 7.52 1.26
6 -5 -5 6.8 1.12
6 5 5 5.23 1.22
-7 5 5 50.5 2.69
-7 5 5 43.04 1.88
-7 -5 -5 48.68 2.4
-7 -5 5 44.45 2.75
7 -5 -5 44.57 1.91
7 5 5 45.3 2.37
7 -5 -5 50.1 2.39
-7 5 -5 49.16 2.55
-8 5 5 3.07 1.62
8 5 -5 2.92 1.25
-8 -5 -5 2.75 1.34
-8 5 5 3.07 1.17
8 -5 -5 1.55 1.1
8 5 5 1.06 1.33
-8 -5 5 3.25 1.8
-8 5 -5 3.12 1.57
-9 5 5 10.2 1.93
-9 -5 -5 8.28 1.64
9 5 -5 8.74 1.48
9 -5 -5 7.63 1.36
-9 5 -5 9.52 1.78
9 5 5 8.78 1.7
-9 -5 5 8.77 2.13
10 5 -5 -0.36 1.28
-10 5 5 2.37 1.71
-10 -5 -5 -1.41 1.43
10 -5 -5 1.53 1.27
-10 5 -5 3.91 1.79
10 5 5 2.71 1.62
-10 -5 5 -2.23 2.06
-11 5 5 16.1 2.6
11 -5 -5 10.39 1.67
-11 -5 5 10.39 2.63
-11 5 -5 6.85 2.05
0 6 -5 21.95 1.63
0 6 5 19.24 1.36
0 6 -5 17.55 1.48
0 -6 -5 17.66 1.53
0 -6 -5 17.84 1.36
-1 -6 -5 38.43 1.9
-1 -6 -5 42.26 1.59
-1 6 5 38.86 1.78
1 6 -5 41.43 1.81
1 6 -5 40.71 2.03
1 -6 -5 40.38 1.79
-1 6 -5 43.18 2.04
1 -6 -5 41.91 1.73
1 6 5 41.59 1.88
-2 6 5 2.08 1.14
-2 6 5 1.82 0.92
-2 -6 -5 2.6 1.08
2 6 -5 2.24 0.92
2 6 -5 3.33 1.16
2 -6 -5 3.33 0.97
2 -6 -5 3.81 0.97
2 6 5 2.49 0.96
-2 6 -5 1.27 1.11
3 6 -5 9.74 1.37
-3 -6 -5 7.95 1.28
-3 6 5 9.07 1.45
3 6 -5 7.76 1
-3 6 5 7.39 1.11
3 -6 -5 10.42 1.22
-3 6 -5 11.95 1.39
3 6 5 8.69 1.19
-4 -6 -5 2.93 1.21
4 6 -5 3.88 1.3
-4 6 5 4.12 1.31
-4 6 -5 3.22 1.31
4 6 5 2.54 1.1
4 -6 -5 2.88 1.13
5 6 -5 25.6 2.13
-5 6 5 25.36 2.23
-5 -6 -5 24.6 2.01
5 6 5 28.08 1.97
-5 6 -5 28.41 2.19
5 -6 -5 26.36 2.02
-6 -6 -5 13.94 1.71
-6 6 5 12.17 1.75
6 -6 -5 11.25 1.47
6 6 5 12.25 1.47
-6 6 -5 13.34 1.7
-7 6 5 25.85 2.47
-7 -6 -5 27.17 2.26
7 6 5 25.05 1.91
-7 6 -5 26.28 2.08
-8 -6 -5 0.17 1.41
8 6 -5 -0.06 1.23
-8 6 5 2.93 1.59
8 6 5 1.84 1.37
-8 6 -5 -2.05 1.58
-9 6 5 4.92 1.68
9 6 -5 1.79 1.38
-9 -6 -5 1.26 1.48
-9 6 -5 6.07 1.85
9 6 5 6.89 1.64
10 6 -5 -1.61 1.24
-10 6 5 3.23 1.7
-10 -6 -5 -1.58 1.55
-10 6 -5 1.48 1.88
10 6 5 1.02 1.55
0 -7 -5 6.08 1.25
0 7 -5 5.06 1.36
0 7 5 3.82 1.04
0 7 -5 3.9 1.13
0 -7 -5 5.41 0.97
-1 -7 -5 19.42 1.61
-1 7 5 17.57 1.4
1 7 -5 20.71 1.7
1 7 -5 19.85 1.71
1 -7 -5 20.7 1.37
1 7 5 19.13 1.44
-1 7 -5 19.82 1.7
1 -7 -5 21.76 1.57
-2 -7 -5 0.51 1.21
2 7 -5 1.92 1.31
-2 7 5 0.8 0.95
2 7 -5 0.32 0.93
2 7 5 1.26 1.03
2 -7 -5 -0.99 1.03
-2 7 -5 1.19 1.3
2 -7 -5 2.19 1.07
3 7 -5 4.28 1.44
-3 7 5 5.29 1.09
-3 -7 -5 5.12 1.33
-3 7 5 6.47 1.42
3 7 5 5.26 1.17
3 -7 -5 6.49 1.26
-3 7 -5 5.96 1.46
-4 7 5 -0.46 0.99
4 7 -5 1.65 1.4
-4 7 5 0.72 1.29
-4 -7 -5 -0.17 1.23
4 -7 -5 -0.27 1.18
4 7 5 2.64 1.14
-4 7 -5 2.63 1.43
-5 7 5 11.73 1.7
5 7 -5 12.99 1.78
-5 -7 -5 8.3 1.56
-5 7 -5 10.96 1.68
5 7 5 9.94 1.41
6 7 -5 -0.84 1.48
-6 7 5 3.2 1.46
-6 -7 -5 1.15 1.42
-6 7 -5 2.28 1.6
6 7 5 4.27 1.3
-7 -7 -5 11.86 1.83
-7 7 5 15.69 1.88
7 7 5 12.34 1.6
-7 7 -5 14.16 1.93
-8 7 5 3.46 1.55
8 7 -5 0.74 1.25
-8 -7 -5 -0.09 1.52
-8 7 -5 -0.45 1.69
8 7 5 1.61 1.38
9 7 -5 2.11 1.46
-9 -7 -5 2.38 1.75
-9 7 5 4.03 1.68
-9 7 -5 5.92 1.89
9 7 5 4.15 1.53
0 -8 -5 12.08 1.57
0 8 -5 13.87 1.73
0 8 5 11.18 1.31
0 8 -5 11.5 1.38
-1 -8 -5 25.26 2.12
1 8 -5 26.96 2.34
1 8 -5 29.08 1.91
-1 8 5 27.95 1.86
-1 8 -5 30.68 2.36
1 8 5 27.12 1.9
1 -8 -5 22.38 1.97
-2 -8 -5 2.83 1.39
2 8 -5 1.49 1.45
-2 8 5 3.29 1.05
2 8 5 3.12 1.12
-2 8 -5 4.99 1.54
-3 -8 -5 8.64 1.62
-3 8 5 7.93 1.24
3 8 -5 10.91 1.73
3 8 5 11.41 1.41
-3 8 -5 11.5 1.73
-4 8 5 3.32 1.14
4 8 -5 3.97 1.6
-4 -8 -5 1.02 1.49
4 8 5 3.94 1.2
-4 8 -5 3.3 1.57
-5 8 5 20.33 1.96
5 8 -5 18.16 2.02
-5 8 5 16.46 1.54
-5 -8 -5 19.32 1.99
5 8 5 19.01 1.68
-5 8 -5 18.79 2
6 8 -5 8.53 1.84
-6 -8 -5 7.52 1.85
-6 8 5 6.7 1.63
-6 8 5 5.39 1.31
-6 8 -5 9.82 1.89
6 8 5 7.1 1.42
-7 -8 -5 15 2.11
-7 8 -5 16.84 2.12
7 8 5 17.83 1.77
8 8 -5 -0.37 1.3
-8 -8 -5 -0.58 1.89
8 8 5 3.21 1.44
-8 8 -5 1.58 1.84
0 9 -5 1.98 1.59
1 9 -5 10.71 1.83
1 9 5 13.69 1.96
-1 9 -5 12.9 1.86
-1 9 -5 10.95 1.55
2 9 -5 5.55 1.71
-2 -9 -5 2.23 1.65
2 9 5 4.19 1.37
-2 9 -5 5.62 1.67
-3 -9 -5 8.21 1.86
3 9 -5 9.41 1.86
3 9 5 8.86 1.46
-3 9 -5 8.24 1.78
-4 -9 -5 3.89 1.73
4 9 -5 6.11 1.78
-4 9 -5 5.8 1.77
4 9 5 4.69 1.36
5 9 -5 10.67 2
-5 -9 -5 10.43 2.03
-5 9 -5 9.31 1.94
5 9 5 13.6 1.77
-6 -9 -5 0.43 1.76
6 9 -5 0.33 1.74
-6 9 -5 1.42 1.74
6 9 5 2.6 1.78
0 10 -5 3.33 1.75
1 10 -5 5.19 1.79
-1 10 -5 2.52 1.71
2 10 -5 7.89 1.87
-2 10 -5 5.24 1.97
-2 10 -5 4.59 1.78
3 10 -5 2.56 1.79
-3 10 -5 6.5 1.83
4 10 -5 6.67 2.14
-4 10 -5 6.55 2.1
0 0 6 3.71 0.81
0 0 6 5.81 1.08
0 0 -6 3.93 0.94
-1 0 6 -0.98 0.94
-1 0 -6 -0.32 0.73
-1 0 6 1.21 0.8
1 0 6 -1.15 0.74
2 0 -6 24.83 1.44
-2 0 6 25.94 1.76
2 0 6 28.97 1.55
-2 0 -6 27.61 1.91
-3 0 6 -0.91 1.16
3 0 6 -0.1 1.03
3 0 -6 -1.67 0.72
-4 0 6 33.16 2.08
4 0 6 31.96 1.71
4 0 -6 31.45 1.63
-4 0 -6 31.44 1.56
-5 0 6 0.33 1.22
-5 0 -6 0.04 0.82
5 0 -6 0.58 0.87
5 0 6 0.8 0.99
6 0 -6 2.46 1
-6 0 6 0.9 1.34
-6 0 -6 2.67 0.96
6 0 -6 2.88 1
6 0 6 3.4 1.1
7 0 -6 0.7 1.03
7 0 6 1.71 1.21
-7 0 -6 -1.59 0.9
7 0 -6 0.97 1.01
-7 0 6 -0.92 1.37
8 0 -6 11.47 1.35
8 0 6 9.48 1.47
-8 0 -6 7.76 1.12
8 0 -6 6.62 1.31
-8 0 6 7.79 1.83
9 0 6 -0.5 1.38
-9 0 6 1.14 1.83
9 0 -6 -0.25 1.18
-9 0 -6 -0.11 1.08
9 0 -6 -0.63 1.23
10 0 6 17.5 1.86
-10 0 6 16.13 2.44
10 0 -6 10.99 1.6
10 0 -6 15.51 1.57
-11 0 6 -2.92 2
11 0 -6 0.13 1.38
0 -1 -6 10.2 0.99
0 1 6 7.49 0.89
0 1 6 8.49 1.14
0 -1 6 8.53 0.92
0 -1 6 9.67 1.14
1 1 -6 2.42 0.95
-1 1 6 1.97 0.82
1 -1 6 1.76 0.84
-1 1 6 0.79 0.97
-1 -1 -6 2.93 0.79
-1 1 -6 2.92 1.27
-1 -1 6 1.37 1
-1 -1 6 2.04 0.84
1 1 6 2.4 0.79
2 -1 6 45.63 1.69
2 1 -6 43.73 1.65
-2 -1 -6 42.13 1.58
-2 1 -6 40.97 1.67
-2 -1 6 43.12 1.93
2 -1 -6 42.19 1.66
3 1 -6 8.02 0.97
-3 1 6 9.42 1.32
3 -1 6 11.51 1.08
-3 -1 -6 10.72 0.96
-3 -1 6 7.24 1.27
3 -1 -6 9.33 0.98
-3 1 -6 8.7 0.99
3 1 6 9.95 1.05
4 1 -6 38.5 1.74
-4 1 6 40.7 2.14
4 -1 6 44.37 2.74
-4 -1 6 38.14 2.17
4 -1 -6 39.33 1.78
4 1 6 43.57 1.86
-4 1 -6 42.99 1.8
-5 1 6 0.73 1.21
5 -1 6 -1.09 0.93
5 1 -6 -1.06 0.85
-5 -1 -6 1.15 0.8
5 1 6 0.71 0.96
-5 -1 6 -0.18 1.2
-5 1 -6 0.42 0.97
5 -1 -6 1.46 0.89
5 -1 -6 2.07 0.87
6 -1 6 5.54 1.16
-6 -1 -6 7.17 0.91
6 1 -6 5.43 1.03
-6 1 6 7.35 1.57
-6 1 -6 5.52 1.11
6 1 6 5.27 1.18
-6 -1 6 6.15 1.5
6 -1 -6 5.09 1.09
6 -1 -6 5.31 1.05
7 1 -6 1.73 1.06
7 1 -6 0.92 0.98
7 -1 6 0.26 1.12
-7 -1 -6 0.52 0.83
-7 1 6 -0.94 1.39
7 -1 -6 1.61 1.12
7 -1 -6 1.77 1.02
-7 1 -6 -1.58 1.05
-7 -1 6 0.58 1.49
7 1 6 1.91 1.19
-8 1 6 15.43 2.02
8 -1 6 19.82 1.69
8 1 -6 17.91 1.64
-8 -1 -6 16.37 1.57
8 1 -6 17.04 1.42
-8 1 -6 18.58 1.52
8 -1 -6 17.72 1.54
-8 -1 6 16.2 2.06
8 1 6 15.95 1.66
8 -1 -6 19.48 1.63
-9 1 6 3.53 1.83
9 -1 6 4.5 1.46
-9 -1 -6 1.55 1.18
9 1 -6 2.21 1.2
9 1 -6 3.84 1.31
9 1 6 3.41 1.46
9 -1 -6 2.85 1.23
-9 -1 6 1.61 1.77
-9 1 -6 1.21 1.23
9 -1 -6 7.17 1.35
-10 -1 -6 14.61 1.59
-10 1 6 18.57 2.4
10 -1 6 16.38 1.81
10 1 -6 16.17 1.71
10 -1 -6 17.79 1.77
10 -1 -6 18.32 1.66
-10 -1 6 15.7 2.39
10 1 6 16.17 1.9
-11 1 6 1.17 2.14
11 1 -6 1.23 1.37
11 -1 -6 0.79 1.4
11 1 6 -1.19 1.56
-11 -1 6 -0.41 2.09
0 2 6 10.1 0.99
0 2 -6 11.48 1.06
0 2 -6 12.38 0.88
0 -2 6 12.5 0.95
0 2 6 7.92 1.12
0 -2 6 11.73 1.11
-1 2 6 10.81 1.28
-1 2 6 11.88 1.1
-1 -2 -6 12.73 0.99
1 -2 6 12.71 0.98
1 2 -6 13.25 0.93
1 2 -6 10.71 1
1 -2 -6 11.81 1.02
-1 2 -6 10.66 1.02
1 2 6 11.15 1.07
-1 2 -6 12.84 0.89
-1 -2 6 12.12 1.19
-1 -2 6 11.49 0.98
2 -2 6 41.94 1.58
2 2 -6 38.99 1.65
-2 2 6 40 2.01
2 2 -6 39.56 1.31
-2 -2 -6 39.91 1.52
-2 2 -6 39.32 1.74
2 2 6 38.22 1.71
2 -2 -6 39.17 1.66
-2 2 -6 40.11 1.24
-2 -2 6 42.92 1.8
3 2 -6 1.46 0.82
-3 -2 -6 2.42 0.78
3 -2 6 0.89 0.81
-3 2 6 2.82 1.12
3 -2 -6 0.89 0.87
3 -2 -6 2.36 0.71
-3 2 -6 4.26 0.73
-3 -2 6 3.05 1.16
-3 2 -6 2.41 0.96
3 2 6 1.75 0.89
4 -2 6 39.63 1.67
-4 2 6 36.48 2.11
4 2 -6 39.27 1.73
-4 -2 -6 38.08 1.5
-4 2 -6 37.61 1.81
4 -2 -6 36.06 1.53
-4 2 -6 38.45 1.45
4 -2 -6 36.22 1.76
4 2 6 38.61 1.87
-4 -2 6 38.88 2.13
5 2 -6 5.09 0.98
-5 -2 -6 4.87 0.86
5 -2 6 2.76 1.11
-5 2 6 4.06 1.33
-5 2 -6 2.52 0.88
5 2 6 3.05 1.04
-5 -2 6 1.89 1.33
5 -2 -6 5.19 0.95
-5 2 -6 2.53 1.06
5 -2 -6 2.41 0.95
-6 2 6 11.18 1.65
6 2 -6 10.28 1.13
6 -2 6 11.73 1.2
6 -2 -6 10.41 1.13
6 -2 -6 10.88 1.25
6 2 6 9.3 1.32
-6 2 -6 8.58 1.2
-6 -2 6 9.54 1.6
7 -2 6 11.2 1.3
-7 2 6 8.55 1.74
7 2 -6 10.34 1.2
-7 -2 -6 8.85 1.3
7 2 -6 6.79 1.25
7 2 6 8.51 1.35
7 -2 -6 9.45 1.28
-7 -2 6 7.05 1.71
-7 2 -6 7.24 1.18
7 -2 -6 9.91 1.21
8 2 -6 20.76 1.7
8 2 -6 16.95 1.59
-8 -2 -6 15.63 1.58
-8 2 6 13.19 2.05
8 -2 6 17.85 1.58
8 -2 -6 16.87 1.48
8 -2 -6 21.3 1.71
8 2 6 15.42 1.72
-8 -2 6 16.77 2.14
-8 2 -6 13.17 2.34
-9 -2 -6 1.08 1.27
-9 2 6 2.17 1.82
9 2 -6 1.09 1.29
9 -2 -6 0.81 1.22
9 -2 -6 0.46 1.3
9 2 6 2.37 1.45
-9 -2 6 1.66 1.84
-10 2 6 16.57 2.44
10 2 -6 16.73 1.75
-10 -2 -6 16.05 1.66
10 -2 -6 15.78 1.72
10 2 6 15.1 1.93
-10 -2 6 10.95 2.31
10 -2 -6 16.9 1.69
11 2 -6 0.48 1.38
-11 2 6 2.61 2.15
11 2 6 -1.05 1.54
11 -2 -6 0.5 1.32
-11 -2 6 -3.36 2.03
0 3 6 19.7 1.38
0 -3 -6 17.78 1.43
0 -3 6 19.57 1.18
0 -3 6 20.03 1.22
0 3 -6 19 1.2
0 3 -6 18 1.22
0 3 6 19.94 1.63
1 3 -6 17.33 1.21
-1 3 6 17.97 1.42
1 3 -6 18.11 1.44
1 -3 6 19.79 1.14
-1 -3 -6 17.23 1.35
-1 3 6 16.82 1.6
1 -3 -6 16.94 1.17
-1 3 -6 14.35 1.19
-1 -3 6 16.71 1.33
-1 3 -6 17.45 1.16
-1 -3 6 17.34 1.19
1 3 6 15.98 1.21
-2 3 6 16.74 1.49
2 -3 6 17 1.14
2 3 -6 18.75 1.29
2 3 -6 16.07 1.16
-2 -3 -6 15.85 1.28
-2 3 -6 17.44 1.19
-2 3 -6 14.45 1.23
-2 -3 6 15.89 1.45
2 -3 -6 18.78 1.44
2 3 6 15.61 1.25
2 -3 -6 15.77 0.97
3 -3 6 7.91 0.85
3 3 -6 5.43 0.94
-3 -3 -6 5.88 0.81
3 3 -6 5.92 0.94
-3 3 6 5.66 1.23
-3 3 -6 5.94 0.9
3 -3 -6 4.44 0.95
3 3 6 3.71 0.98
-3 3 -6 5.31 1.03
3 -3 -6 4.47 0.73
-3 -3 6 7.17 1.2
4 -3 6 16.31 1.34
-4 -3 -6 9.63 1.25
-4 3 6 18.71 1.73
4 3 -6 15.3 1.17
-4 -3 -6 19.14 1.21
-4 3 -6 18.85 1.43
4 3 6 15.33 1.34
4 -3 -6 16.58 1.32
-4 -3 6 17.02 1.63
4 -3 -6 14.94 1.16
5 3 -6 9.41 1.08
-5 -3 -6 9.24 1.3
5 -3 6 10.49 1.55
-5 3 6 9.03 1.5
-5 -3 6 7.55 1.5
5 -3 -6 9.66 1.18
5 -3 -6 10.19 0.99
-5 3 -6 11.07 1.24
5 3 6 9.12 1.26
6 3 -6 11.14 1.17
-6 -3 -6 10.55 1.42
-6 3 6 14.65 1.82
-6 -3 6 9.9 1.67
6 3 6 14.32 1.49
6 -3 -6 13.73 1.44
-6 3 -6 12.32 1.3
6 -3 -6 12 1.17
7 3 -6 12 1.21
-7 3 6 16.28 1.98
-7 -3 -6 12.84 1.49
-7 3 -6 10.76 1.4
7 -3 -6 13.31 1.43
-7 -3 6 13.32 1.91
7 3 6 12.27 1.57
7 -3 -6 11.13 1.29
-8 3 6 6.87 1.84
8 3 -6 5.08 1.29
-8 -3 -6 7.41 1.49
-8 3 -6 8.97 1.49
8 -3 -6 4.34 1.21
-8 -3 6 8.62 1.93
8 3 6 4.49 1.44
8 -3 -6 5.81 1.36
-9 -3 -6 1.57 1.29
9 3 -6 2.15 1.29
-9 3 6 3.59 1.86
-9 -3 6 2.6 1.95
9 3 6 2.69 1.46
9 -3 -6 1.98 1.23
-9 3 -6 0.18 2.46
9 -3 -6 2.59 1.31
-10 3 6 6.19 2.11
10 3 -6 6.22 1.51
-10 -3 -6 4.77 1.46
10 -3 -6 8.56 1.58
10 -3 -6 8.6 1.5
-10 -3 6 7.21 2.22
10 3 6 5.97 1.75
-11 3 6 4.06 2.15
11 3 -6 0.77 1.47
11 3 6 1.82 1.75
11 -3 -6 1.37 1.41
-11 -3 6 0.95 2.17
0 4 6 31.85 1.63
0 4 -6 32.34 1.56
0 4 -6 30.78 1.68
0 -4 -6 31.52 1.61
0 -4 -6 31.39 1.57
-1 -4 -6 6.81 1.11
1 4 -6 7.67 1.03
-1 -4 -6 6.47 1.11
-1 4 6 8.2 1.32
1 4 -6 8.88 1.04
-1 4 6 6.82 0.99
-1 4 -6 7.81 1.01
1 4 6 8.15 1.08
1 -4 -6 8.04 1.03
1 -4 -6 8.34 1.04
-1 4 -6 6.08 1.05
-2 -4 -6 14.83 1.3
-2 4 6 13.54 1.24
-2 4 6 15.2 1.53
2 4 -6 16.06 1.24
2 4 -6 14.43 1.18
-2 -4 -6 14.66 1.11
2 4 6 14.58 1.28
-2 4 -6 16.4 1.42
2 -4 -6 15.19 1.4
-2 4 -6 12.67 1.23
2 -4 -6 14.68 1.19
3 4 -6 2.66 0.92
3 4 -6 2.27 1.01
-3 -4 -6 2.52 0.78
-3 -4 -6 3.61 1.09
-3 4 6 4.88 1.27
3 -4 -6 2.36 0.93
3 4 6 2.61 0.99
3 -4 -6 5.01 0.87
-3 -4 6 3.09 1.16
-4 4 6 10.78 1.58
-4 -4 -6 7.57 1.27
4 4 -6 9.06 1.19
4 4 -6 7.6 1.04
4 -4 -6 9.47 1.2
4 4 6 7.21 1.2
-4 4 -6 8.93 1.18
5 4 -6 2.97 0.95
-5 4 6 4.34 1.43
-5 -4 -6 2.51 1.22
-5 -4 6 4.49 1.4
5 -4 -6 2.63 0.83
-5 4 -6 4.05 1.16
5 -4 -6 4.18 1.08
5 4 6 5.5 1.22
-6 4 6 20.85 2.03
6 4 -6 16.15 1.23
-6 -4 -6 17.09 1.64
6 -4 -6 17.01 1.43
-6 4 -6 20.15 1.6
6 4 6 15.29 1.62
-6 -4 6 18.55 1.88
6 -4 -6 19.55 1.64
-7 -4 -6 4.02 1.33
-7 4 6 6.7 1.75
7 -4 -6 8.41 1.48
-7 4 -6 5.01 1.41
7 -4 -6 5.1 1.09
-7 -4 6 3.95 1.71
7 4 6 5.77 1.4
8 4 -6 6.71 1.45
-8 -4 -6 7.5 1.61
-8 4 6 8.7 1.91
-8 4 -6 10.39 1.62
8 -4 -6 12.12 1.65
8 -4 -6 9.79 1.3
8 4 6 10.99 1.72
-8 -4 6 7.67 1.94
-9 -4 -6 0.36 1.37
9 4 -6 1.78 1.35
-9 4 6 2.54 1.84
9 4 6 0.54 1.46
9 -4 -6 -0.14 1.33
-9 -4 6 0.16 1.89
9 -4 -6 0.98 1.16
-9 4 -6 1.85 1.57
-10 -4 -6 3.28 1.5
-10 4 6 7.19 2
10 4 -6 1.87 1.46
-10 -4 6 3.68 2.11
10 -4 -6 0.98 1.28
10 4 6 2.19 1.63
11 -4 -6 2.37 1.57
0 -5 -6 46.72 1.92
0 5 -6 47.83 2.02
0 5 6 50.1 2.02
0 -5 -6 45.98 1.81
0 5 -6 52.72 2.02
-1 -5 -6 11.77 1.04
-1 5 6 9.28 1.11
-1 -5 -6 9.17 1.22
1 5 -6 11.12 1.19
1 5 -6 14.04 1.3
-1 5 6 11.2 1.47
1 5 6 8.3 1.13
-1 5 -6 12.18 1.25
-1 5 -6 11.99 1.29
1 -5 -6 11.07 1.11
1 -5 -6 11.6 1.18
-2 5 6 15.2 1.6
-2 5 6 15.47 1.32
-2 -5 -6 14.51 1.68
2 5 -6 15.27 1.25
-2 -5 -6 19.15 1.67
2 5 -6 17.51 1.41
-2 5 -6 13.89 1.36
2 5 6 16.24 1.42
2 -5 -6 17.51 1.31
-2 5 -6 18.13 1.39
2 -5 -6 16.9 1.41
-3 5 6 -0.7 0.94
3 5 -6 3.23 1.16
-3 5 6 -0.42 1.13
-3 -5 -6 -1.9 1.08
3 5 -6 0.6 0.93
3 5 6 -0.3 1.01
-3 5 -6 0.24 1.05
3 -5 -6 1.16 1
4 5 -6 11.73 1.41
-4 -5 -6 10.99 1.38
-4 5 6 13.36 1.7
4 5 -6 14.46 1.19
4 5 6 10.27 1.31
-4 5 -6 13.57 1.43
4 -5 -6 10.83 1.34
5 5 -6 6.89 1.08
-5 5 6 5.17 1.61
-5 -5 -6 5.31 1.31
-5 5 -6 6.16 1.35
5 5 6 4.2 1.24
5 -5 -6 7.4 1.27
-6 5 6 31.27 2.52
-6 -5 -6 25.96 2.16
6 5 6 30.41 2.31
-6 5 -6 36.37 2.28
6 -5 -6 32.93 2.2
-7 5 6 7.31 1.76
-7 -5 -6 6.29 1.58
7 5 6 6.87 1.47
7 -5 -6 10.38 1.52
-7 5 -6 7.39 1.59
-8 5 6 12.45 2.03
8 5 -6 7.85 1.53
-8 -5 -6 8.68 1.72
8 5 6 9.9 1.69
8 -5 -6 10.12 1.62
-8 -5 6 8.02 2.58
-8 5 -6 7.98 1.71
-9 5 6 2.88 1.76
-9 -5 -6 -1.72 1.37
9 5 -6 0.89 1.42
9 5 6 -0.74 1.49
-9 5 -6 -0.19 1.6
-9 -5 6 -3.12 2.04
-10 -5 -6 0.15 1.57
10 5 -6 0.93 1.53
-10 5 6 7.91 2
10 5 6 2.56 1.73
-10 -5 6 -1.51 2.8
0 6 -6 40.54 2.11
0 -6 -6 41.96 2.01
0 -6 -6 42.51 1.81
0 6 6 45.23 2.11
0 6 -6 45.41 2.16
-1 -6 -6 11.87 1.45
-1 -6 -6 10.03 1.05
1 6 -6 10.14 1.39
1 6 -6 11.44 1.27
-1 6 6 10.42 1.25
1 6 6 9.24 1.27
-1 6 -6 9.9 1.34
-1 6 -6 8.95 1.36
1 -6 -6 12.48 1.29
1 -6 -6 9.75 1.16
2 6 -6 9.24 1.43
-2 6 6 7.85 1.19
2 6 -6 9.63 1.18
-2 6 6 8.35 1.46
-2 -6 -6 8.22 1.37
-2 6 -6 8.31 1.38
2 -6 -6 9.2 1.24
2 6 6 10.42 1.32
2 -6 -6 9.54 1.19
-2 6 -6 8.25 1.33
-3 6 6 8.66 1.6
3 6 -6 8.28 1.15
-3 -6 -6 8.77 1.39
-3 6 6 7.92 1.27
3 6 -6 7.51 1.43
3 -6 -6 10.21 1.32
-3 6 -6 7.86 1.37
3 6 6 8.35 1.31
-4 -6 -6 4.61 1.36
-4 6 6 5.01 1.2
-4 6 6 5.56 1.57
4 6 -6 6.4 1.47
4 6 6 5.22 1.28
-4 6 -6 3.72 1.35
4 -6 -6 7.97 1.36
-5 -6 -6 7.36 1.52
5 6 -6 7.22 1.55
-5 6 6 9.28 1.71
5 -6 -6 11.06 1.53
5 6 6 6.07 1.34
-5 6 -6 11.82 1.65
-6 -6 -6 25.74 2
-6 6 6 26.91 2.55
6 -6 -6 27.9 1.97
6 6 6 28.02 2.06
-6 6 -6 29.71 2.46
-7 6 6 5.75 1.72
-7 -6 -6 3.9 1.51
7 6 6 4.78 1.48
-7 6 -6 5.27 1.67
7 -6 -6 5.32 1.51
8 6 -6 3.61 1.4
-8 6 6 11.12 2.01
-8 -6 -6 4.86 1.73
8 6 6 9.5 1.77
-8 6 -6 6.65 1.79
9 6 -6 1.41 1.43
-9 -6 -6 2.14 1.7
-9 6 6 8.36 1.87
9 6 6 4.64 1.63
-9 6 -6 5.33 1.82
0 7 -6 24.47 1.69
0 -7 -6 26.57 1.77
0 7 6 25.64 1.91
0 -7 -6 23.51 1.91
0 7 -6 27.8 2.24
1 7 -6 1.52 1.17
1 7 -6 3.82 1.43
-1 -7 -6 2.72 1.31
-1 7 6 2.95 1.14
1 -7 -6 4.52 1.11
1 7 6 3.98 1.18
-1 7 -6 3.59 1.32
1 -7 -6 3.34 1.22
-1 7 -6 2.71 1.39
2 7 -6 4.93 1.45
-2 -7 -6 4.47 1.42
-2 7 6 6.28 1.21
2 7 -6 5.26 1.18
2 -7 -6 5.8 1.24
-2 7 -6 4.76 1.39
-2 7 -6 6.28 1.46
2 7 6 6.64 1.28
-3 7 6 7.89 1.3
-3 7 6 7.86 1.62
-3 -7 -6 9.09 1.54
3 7 -6 7.33 1.57
3 -7 -6 11.09 1.45
-3 7 -6 9.45 1.58
3 7 6 7.94 1.35
4 7 -6 2.88 1.53
-4 7 6 5.24 1.58
-4 -7 -6 2.58 1.45
-4 7 6 2.59 1.2
4 7 6 2.58 1.26
-4 7 -6 3.13 1.48
4 -7 -6 3.44 1.35
5 7 -6 4.27 1.6
-5 7 6 4.04 1.27
-5 7 6 2.97 1.54
-5 -7 -6 1.96 1.44
5 -7 -6 4.65 1.46
5 7 6 2.67 1.29
-5 7 -6 5.12 1.58
-6 7 6 17.2 2.04
-6 -7 -6 15.96 1.94
-6 7 -6 19.4 2.01
6 7 6 15.75 1.73
-7 -7 -6 2.18 1.63
-7 7 6 3.16 1.65
-7 7 -6 4.24 1.79
7 7 6 1.08 1.4
-8 -7 -6 -0.03 1.65
8 7 -6 6.14 1.58
-8 7 6 4.59 1.71
-8 7 -6 4.41 1.8
8 7 6 5.44 1.62
0 -8 -6 21.65 1.94
0 8 -6 21.37 1.92
0 8 -6 22.62 1.72
0 8 6 26.73 2.09
-1 8 6 2.07 1.14
1 8 -6 3.49 1.27
1 8 -6 0.91 1.51
-1 -8 -6 1.6 1.38
1 8 6 -0.47 1.07
-1 8 -6 2.41 1.42
-1 8 -6 1.24 1.5
1 -8 -6 -1.58 1.3
2 8 -6 8.22 1.7
-2 8 6 10.43 1.37
-2 -8 -6 10.56 1.7
-2 8 -6 10.41 1.7
-2 8 -6 6.23 1.55
2 8 6 8.02 1.35
-3 8 6 5.14 1.28
3 8 -6 5.29 1.66
-3 -8 -6 8.44 1.67
-3 8 -6 3.84 1.58
3 8 6 7.27 1.38
4 8 -6 8.02 1.81
-4 -8 -6 4.31 1.61
-4 8 6 7.97 1.35
4 8 6 5 1.34
-4 8 -6 8.76 1.74
-5 8 6 2.61 1.25
-5 -8 -6 -0.87 1.57
-5 8 6 2.43 1.58
5 8 -6 2.79 1.71
5 8 6 4 1.36
-5 8 -6 2.87 1.63
-6 -8 -6 16.39 2.12
-6 8 6 16.25 2
-6 8 6 11.54 1.57
6 8 6 11.63 1.62
-6 8 -6 15.07 1.96
-7 -8 -6 -0.53 2.19
-7 8 6 1.53 1.61
-7 8 6 1.05 1.33
7 8 6 1.42 1.42
-7 8 -6 3.99 1.76
0 9 6 15.07 1.57
0 -9 -6 9.86 1.75
0 9 -6 15.81 1.98
1 9 -6 1.57 1.63
-1 -9 -6 -2.26 1.49
-1 9 6 1.05 1.24
-1 9 -6 1.06 1.57
1 9 6 1.13 1.21
-1 9 -6 2.54 1.49
-2 -9 -6 6.32 1.72
-2 9 6 9.27 2.23
2 9 -6 8.22 1.84
2 9 6 5.48 1.37
-2 9 -6 9.78 1.83
-2 9 -6 8.43 1.67
3 9 -6 11.53 1.97
-3 -9 -6 12.78 1.94
3 9 6 11.83 1.55
-3 9 -6 14.47 1.87
-3 9 -6 10.84 1.84
4 9 -6 6.33 1.82
-4 -9 -6 4.38 1.8
-4 9 -6 7.98 1.83
4 9 6 7.96 1.44
-5 -9 -6 2.91 2.04
5 9 -6 2.3 1.78
-5 9 -6 3.75 1.77
5 9 6 0.94 1.32
0 10 -6 6.94 1.85
1 10 -6 6.03 1.87
-1 10 -6 2.57 1.77
2 10 -6 6.15 2.7
-2 10 -6 8.91 2.73
0 0 -7 -0.65 0.86
0 0 7 -0.05 0.89
0 0 7 1.05 1.12
-1 0 -7 15.52 1.18
1 0 -7 13.53 1.13
1 0 7 12.9 1.23
-1 0 7 17.18 1.54
-1 0 7 15.12 1.26
2 0 -7 0.98 0.9
2 0 7 -0.57 1.01
-2 0 7 1.62 1.24
-2 0 -7 1.63 0.94
-3 0 7 96.26 3.07
3 0 7 96.8 2.72
3 0 -7 94.39 2.58
-3 0 -7 95.46 2.55
4 0 -7 -0.38 0.9
-4 0 7 0.46 1.31
-4 0 -7 -0.95 0.94
4 0 7 0.09 1.06
-5 0 -7 15.77 1.32
-5 0 7 20.18 1.93
5 0 -7 18.31 1.4
5 0 7 17.7 1.49
-6 0 7 -0.23 1.48
6 0 -7 0.27 1
-6 0 -7 -0.09 1.03
6 0 7 -1.58 1.18
6 0 -7 0.42 1.11
-7 0 7 6.28 1.8
7 0 -7 4.64 1.28
-7 0 -7 6.09 1.19
7 0 -7 5.69 1.27
7 0 7 6.7 1.43
8 0 7 1.13 1.4
8 0 -7 0.17 1.21
-8 0 7 -0.84 1.71
-8 0 -7 -0.01 1.45
8 0 -7 0.06 1.23
-9 0 7 32.26 3.09
-9 0 -7 33.27 2.16
9 0 -7 35.2 2.4
9 0 7 33.85 2.69
9 0 -7 38.33 2.34
-10 0 7 -0.05 1.97
10 0 7 -0.96 1.57
10 0 -7 0.36 1.39
10 0 -7 1.06 1.33
0 -1 -7 2.89 0.92
0 -1 7 4.56 1.2
0 1 7 2.33 0.91
0 1 7 4.43 1.17
0 1 -7 3.66 0.97
-1 -1 -7 13.68 1.14
-1 1 7 15.94 1.29
-1 1 7 15.69 1.59
1 1 -7 18.62 1.54
-1 1 -7 15.12 1.23
1 1 7 14.15 1.27
-1 -1 7 15.43 1.55
1 -1 -7 17.11 1.23
2 1 -7 0.35 0.9
2 -1 7 2.14 1.07
-2 -1 -7 2.43 0.94
-2 1 7 0.76 1.2
-2 -1 7 3.49 1.27
2 -1 -7 1.54 0.9
-2 1 -7 1.13 0.98
2 1 7 0.77 0.98
3 -1 7 49.43 2.03
3 1 -7 46.67 1.93
-3 -1 -7 46.65 1.88
-3 1 7 44.86 2.37
-3 -1 7 45.04 2.27
3 1 7 48.04 2.1
-3 1 -7 46.59 2
3 -1 -7 44.15 1.94
4 -1 7 1.77 1.05
4 1 -7 0.74 0.98
-4 1 7 0.71 1.25
-4 -1 -7 1.49 0.95
4 1 7 -0.34 1.05
4 -1 -7 1.38 0.96
-4 1 -7 0.45 1.04
-4 -1 7 2.19 1.34
5 1 -7 13.87 1.38
-5 -1 -7 16.44 1.24
5 -1 7 14.7 1.41
-5 1 7 14.31 1.77
5 -1 -7 14.04 1.29
-5 -1 7 14.83 1.83
-5 1 -7 12.84 1.32
5 -1 -7 14.3 1.38
5 1 7 14.02 1.49
-6 1 7 2.93 1.56
-6 -1 -7 3.01 0.97
6 -1 7 0.96 1.16
6 1 -7 2.05 1.13
-6 1 -7 1 1.16
6 -1 -7 1.15 1.16
6 -1 -7 1.77 1.07
6 1 7 0.18 1.24
-6 -1 7 3.3 1.64
7 1 -7 7.46 1.34
-7 1 7 8.46 1.84
7 -1 7 10.35 1.47
7 1 -7 8.34 1.36
7 -1 -7 6.14 1.23
-7 1 -7 7.82 1.39
7 -1 -7 7.98 1.36
7 1 7 8.81 1.51
-7 -1 7 9.06 1.91
-8 1 7 0.31 1.75
8 1 -7 2.05 1.22
-8 -1 -7 2.54 1.3
8 -1 7 0.57 1.34
8 1 -7 0.25 1.21
-8 1 -7 1.35 1.29
-8 -1 7 2.13 1.78
8 -1 -7 1.3 1.28
8 1 7 2 1.5
8 -1 -7 1.66 1.24
9 1 -7 20.72 1.73
9 -1 7 19.27 1.87
-9 1 7 20.41 2.56
-9 -1 -7 18.39 1.74
9 1 -7 14.56 1.69
9 -1 -7 18.42 1.79
9 1 7 20.91 1.99
9 -1 -7 19.25 1.77
-9 -1 7 19.76 2.41
10 -1 7 -1.44 1.51
10 1 -7 1 1.37
-10 1 7 -0.46 2.02
-10 -1 -7 1.59 1.35
10 1 7 1.63 1.65
-10 -1 7 0.08 1.96
10 -1 -7 2.11 1.42
10 -1 -7 -0.11 1.32
11 -1 -7 5.2 1.49
0 -2 7 10.68 1.26
0 -2 7 13.22 1.14
0 -2 -7 12.22 1.13
0 2 -7 11.71 1.18
0 2 7 12.16 1.44
0 2 7 9.01 1.1
1 2 -7 15.92 1.27
-1 -2 -7 17.34 1.22
1 -2 7 18.63 1.25
-1 2 7 13.15 1.24
-1 2 7 16.86 1.58
-1 2 -7 12.47 1.22
1 2 7 14.67 1.28
-1 -2 7 16.97 1.65
1 -2 -7 16.16 1.24
-1 -2 7 17.26 1.23
-2 2 7 5.3 1.09
2 -2 7 4.28 1.03
2 2 -7 4.73 1.03
-2 -2 -7 5.01 0.99
-2 2 7 3.49 1.29
2 -2 -7 2.57 0.94
2 2 7 2.51 1
-2 2 -7 4.46 1.06
-3 2 7 35.66 2.25
-3 -2 -7 37.3 1.7
3 2 -7 37.46 1.82
3 2 7 40.28 2.05
-3 2 -7 33.93 1.9
-3 -2 7 32.5 2.06
3 -2 -7 35.62 1.86
-4 2 7 6.24 1.48
4 -2 7 6.41 1.1
-4 -2 -7 5.38 0.98
4 2 -7 6.26 1.12
4 2 7 7.54 1.28
4 -2 -7 5.1 1.11
4 -2 -7 7.55 0.99
-4 2 -7 6.5 1.24
-4 -2 7 7.02 1.48
-5 -2 -7 14.09 1.15
5 2 -7 14.86 1.35
-5 2 7 12.98 1.78
5 -2 7 13.98 1.28
5 2 7 11.67 1.47
5 -2 -7 12.86 1.19
-5 -2 7 15.43 1.8
-5 2 -7 12.88 1.43
5 -2 -7 13.29 1.45
6 2 -7 7.49 1.27
6 -2 7 7.57 1.27
-6 2 7 9.11 1.74
6 -2 -7 6 1.15
6 -2 -7 8.18 1.38
6 2 7 7.4 1.49
-6 2 -7 7.04 1.38
-6 -2 7 4.53 1.64
7 2 -7 8.04 1.47
7 -2 7 7.34 1.35
-7 2 7 8.49 1.82
7 2 -7 7.45 1.31
-7 -2 -7 7.2 1.37
7 -2 -7 8 1.28
-7 -2 7 10.76 1.92
7 -2 -7 9.24 1.49
7 2 7 6.34 1.5
-7 2 -7 10.89 1.57
-8 2 7 3.23 1.86
8 2 -7 -0.34 1.18
8 2 -7 1.61 1.26
-8 -2 -7 0.67 1.35
8 -2 7 1.52 2.16
8 2 7 -0.79 1.41
8 -2 -7 -0.83 1.28
-8 2 -7 2.04 1.47
-8 -2 7 2.39 1.76
8 -2 -7 -0.44 1.14
-9 -2 -7 15.44 1.81
-9 2 7 16.77 2.34
9 2 -7 12 1.71
9 -2 -7 16.15 1.71
9 2 7 10.87 1.81
-9 2 -7 13.84 1.79
9 -2 -7 19.12 1.85
-9 -2 7 12.83 2.25
-10 -2 -7 3.31 1.4
-10 2 7 3.92 2.08
10 2 -7 3.7 1.47
10 -2 -7 4.08 1.45
-10 -2 7 2.41 2.04
10 2 7 3.21 1.74
10 -2 -7 1.68 1.37
0 -3 -7 17.63 1.28
0 3 -7 13.3 1.27
0 3 7 11.15 1.18
-1 3 7 26.03 2.02
-1 -3 -7 27.31 1.66
1 3 -7 25.12 1.7
-1 3 7 24.8 1.7
1 -3 -7 25.61 1.69
-1 -3 7 27 1.66
1 3 7 23.25 1.75
-1 3 -7 25.38 1.78
-2 3 7 1.59 1.01
2 3 -7 -0.03 0.97
-2 -3 -7 0.94 0.91
-2 3 7 0.2 1.16
2 -3 -7 0.74 0.98
-2 3 -7 0.35 1.01
2 3 7 1.67 1.02
-2 -3 7 2.58 1.13
-2 -3 7 2 0.98
-3 3 7 39.93 2.37
3 3 -7 41.98 1.92
-3 -3 -7 41.77 1.75
3 -3 -7 42.17 2.07
-3 3 -7 41.09 2.12
-3 -3 7 43.19 2.07
3 3 7 37.05 2.08
-4 3 7 1.38 1.36
-4 -3 -7 -0.27 0.83
4 3 -7 0.66 1.01
-4 -3 -7 0.14 1.09
-4 3 -7 -0.36 1.13
-4 -3 7 3.84 1.34
4 -3 -7 0.86 1.09
4 -3 -7 0.32 0.82
4 3 7 0.64 1.1
-5 3 7 20.46 2.04
-5 -3 -7 23.26 1.98
5 3 -7 22.86 1.84
-5 -3 7 23.4 2.25
5 3 7 19.91 1.73
-5 3 -7 19.63 1.68
5 -3 -7 15.96 1.21
5 -3 -7 20.5 1.56
-6 3 7 7.6 1.75
-6 -3 -7 9.86 1.44
6 3 -7 7.91 1.24
-6 3 -7 9.06 1.58
6 -3 -7 8.38 1.13
6 -3 -7 9.47 1.37
6 3 7 8.86 1.51
-6 -3 7 8.53 1.71
7 3 -7 12.19 1.37
-7 -3 -7 10.47 1.66
-7 3 7 17.29 2.13
-7 3 -7 13.23 1.73
7 -3 -7 9.4 1.26
-7 -3 7 11.83 1.92
7 -3 -7 14.83 1.73
7 3 7 10.39 1.59
-8 3 7 1.39 1.76
8 3 -7 1.11 1.31
-8 -3 -7 0.9 1.43
-8 3 -7 -3.04 1.45
8 3 7 -0.78 1.47
8 -3 -7 0.99 1.35
8 -3 -7 -1.1 1.06
-8 -3 7 -0.6 1.72
-9 3 7 22.59 2.51
-9 -3 -7 17.15 1.81
9 3 -7 13.64 1.78
-9 -3 7 14.96 2.26
9 -3 -7 20.19 1.92
-9 3 -7 17.22 1.96
9 3 7 17.21 2.03
9 -3 -7 15.51 1.63
10 3 -7 0.14 1.37
-10 -3 -7 0.17 1.38
-10 3 7 3.14 1.94
10 -3 -7 1.33 1.35
10 3 7 1.07 1.67
10 -3 -7 1.34 1.44
-10 3 -7 -1.31 1.65
-10 -3 7 -0.02 1.96
0 -4 -7 14.76 1.29
0 4 7 14.18 1.35
0 4 -7 14.18 1.34
0 -4 -7 19.53 1.35
-1 -4 -7 33.07 1.84
-1 4 7 29.52 1.84
1 4 -7 32.15 1.89
-1 -4 -7 32.61 1.77
-1 4 7 31.21 2.12
1 -4 -7 32.78 1.86
1 4 7 30.65 1.88
1 -4 -7 30.22 1.68
-1 4 -7 29.51 1.9
-2 4 7 0.99 1.01
2 4 -7 2.46 1.11
-2 -4 -7 2.85 1.17
-2 4 7 -0.07 1.17
2 4 -7 0.89 1.06
-2 -4 -7 0.13 0.9
2 4 7 0.39 1.04
2 -4 -7 0.27 1.03
-2 4 -7 1.5 1.14
2 -4 -7 1.53 0.91
3 4 -7 8.41 1.22
-3 4 7 8.46 1.3
-3 -4 -7 9.54 1.06
-3 -4 -7 6.5 1.27
-3 4 7 7.94 1.52
3 4 -7 10.17 1.22
3 -4 -7 8 1.23
3 -4 -7 9.56 1.36
-3 4 -7 9.47 1.39
3 4 7 7.34 1.27
4 4 -7 0.46 1.04
-4 4 7 2.23 1.44
-4 -4 -7 -0.59 1.1
-4 4 -7 0.68 1.24
4 -4 -7 -0.23 1.11
4 4 7 1.57 1.17
5 4 -7 18.28 1.46
-5 4 7 16.82 1.99
-5 -4 -7 18.09 1.7
5 4 7 19.35 1.75
5 -4 -7 19.1 1.69
-5 4 -7 15.51 1.67
-6 4 7 11.17 1.9
6 4 -7 7.81 1.24
-6 -4 -7 7.98 1.47
-6 -4 7 7.96 1.73
-6 4 -7 7.83 1.62
6 -4 -7 9.49 1.41
6 4 7 9.12 1.59
-7 -4 -7 20.3 1.88
-7 4 7 19.01 2.26
-7 -4 7 18.48 2.02
7 -4 -7 20.42 1.75
7 4 7 22.76 2.01
8 4 -7 -0.76 1.3
-8 4 7 1.86 1.74
-8 -4 -7 1.22 1.48
8 -4 -7 2.06 1.48
-8 -4 7 2.23 1.82
8 4 7 2.01 1.54
-9 -4 -7 5.51 1.64
-9 4 7 6 2.04
9 4 -7 5.71 1.52
-9 -4 7 1.96 1.94
9 4 7 1.13 1.6
9 -4 -7 1.17 1.51
-10 -4 -7 -0.48 1.51
-10 -4 7 0.78 2.02
-10 4 -7 0.91 1.86
0 5 7 12.86 1.4
0 -5 -7 11.03 1.35
0 -5 -7 10.9 1.21
0 5 -7 10.13 1.29
0 5 -7 8.42 1.33
-1 -5 -7 17.04 1.59
-1 5 7 19.57 1.57
1 5 -7 20.88 1.76
-1 -5 -7 21.26 1.6
1 5 -7 18.25 1.48
-1 5 -7 18.55 1.51
1 5 7 15.76 1.47
1 -5 -7 17.02 1.42
-1 5 -7 17.16 1.41
1 -5 -7 19.23 1.45
-2 -5 -7 1.83 1.26
-2 5 7 -0.24 1.3
2 5 -7 0.75 1.16
2 5 -7 0.13 1.13
-2 5 7 1.35 1.08
-2 -5 -7 1.56 0.95
-2 5 -7 1.73 1.19
2 -5 -7 2.23 1.1
2 5 7 2.88 1.15
-2 5 -7 0.75 1.22
2 -5 -7 0.5 1
-3 -5 -7 5.67 1.44
3 5 -7 6.24 1.24
-3 5 7 3.4 1.19
-3 5 7 6.63 1.58
3 5 -7 6.91 1.32
3 -5 -7 6.65 1.28
-3 5 -7 5.28 1.82
-3 5 -7 6.4 1.46
3 5 7 4.42 1.29
4 5 -7 1.72 1.11
4 5 -7 1.93 1.22
-4 -5 -7 -0.84 1.2
-4 5 7 1.5 1.22
-4 5 7 0.78 1.42
-4 5 -7 1.07 1.33
4 5 7 -0.99 1.14
4 -5 -7 0.49 1.18
-5 5 7 13.78 1.89
5 5 -7 13.19 1.35
-5 -5 -7 12.41 1.61
-5 5 -7 11.36 1.62
5 -5 -7 13.65 1.65
5 5 7 13.54 1.63
-6 5 7 8.22 1.84
-6 -5 -7 7.33 1.54
6 -5 -7 7.75 1.53
6 5 7 6.1 1.57
-7 -5 -7 14.48 1.89
-7 5 7 15.76 2.19
7 -5 -7 14.29 1.8
7 5 7 12.85 1.85
8 5 -7 -1.79 1.27
-8 -5 -7 -1.21 1.43
-8 5 7 -0.47 1.71
8 -5 -7 0.24 1.49
8 5 7 0.88 1.54
-9 -5 -7 1.17 1.58
9 5 -7 5.07 1.58
-9 5 7 2.57 1.86
9 5 7 2.03 1.6
9 -5 -7 3.49 1.6
0 6 7 7.94 1.31
0 -6 -7 10.19 1.21
0 6 -7 8.09 1.41
0 6 -7 8.4 1.39
0 -6 -7 10.43 1.44
1 6 -7 28.21 2
-1 6 7 27.04 2.05
1 6 -7 26.21 2.1
-1 -6 -7 28.97 2.04
-1 -6 -7 33.5 2.19
1 -6 -7 29.05 1.93
-1 6 -7 29.13 2.01
1 6 7 31.54 2.13
-1 6 -7 28.09 2.17
1 -6 -7 25.26 1.84
-2 6 7 2.06 1.14
2 6 -7 2.43 1.34
2 6 -7 0.93 1.19
-2 -6 -7 1.94 1.34
2 -6 -7 0.84 1.63
-2 6 -7 -0.22 1.32
2 -6 -7 1.5 1.17
-2 6 -7 2.73 1.28
2 6 7 3.61 1.23
3 6 -7 8.07 1.5
-3 -6 -7 6 1.5
-3 6 7 6.2 1.59
-3 6 7 5.42 1.29
3 6 -7 8.18 1.32
3 -6 -7 3.4 1.3
3 6 7 4.32 1.35
-3 6 -7 6.51 1.38
-3 6 -7 5.28 1.52
-4 6 7 0.67 1.53
-4 -6 -7 4.05 1.5
4 6 -7 1.7 1.43
-4 6 7 2.03 1.25
4 6 7 1.61 1.3
-4 6 -7 4.54 1.56
-4 6 -7 -0.82 1.42
4 -6 -7 -0.2 1.27
-5 -6 -7 19.02 1.99
-5 6 7 16.87 2.06
-5 6 7 15.77 1.68
5 6 7 20.04 1.88
5 -6 -7 21.25 1.82
-6 6 7 8.29 1.89
-6 -6 -7 5.88 1.64
6 -6 -7 6.13 1.61
6 6 7 8.05 1.7
-7 -6 -7 18.11 2.04
-7 6 7 19 2.21
7 -6 -7 18.07 1.91
7 6 7 16.8 1.95
-8 -6 -7 -0.57 1.59
-8 6 7 1.78 1.75
8 6 -7 1.97 1.55
8 -6 -7 -0.28 1.48
8 6 7 0.68 1.6
0 7 -7 5.2 1.43
0 7 -7 0.25 1.4
0 7 7 2.85 1.27
0 -7 -7 1.44 1.29
-1 7 7 21.44 1.8
-1 -7 -7 20.53 1.77
1 7 -7 26.57 2.16
1 7 -7 22.14 1.71
1 -7 -7 24.27 1.95
-1 7 -7 20.99 1.8
1 -7 -7 22.96 1.96
1 7 7 22.17 1.76
-1 7 -7 29.16 2.19
2 7 -7 8.67 1.62
-2 7 7 5.12 1.29
2 7 -7 6.8 1.41
-2 -7 -7 5.81 1.48
-2 7 -7 3.5 1.56
2 -7 -7 6.68 1.36
2 7 7 5.97 1.39
-2 7 -7 5.6 1.5
3 7 -7 3.46 1.51
-3 7 7 2.5 1.25
-3 -7 -7 2.06 1.5
-3 7 -7 2.85 1.43
3 7 7 6.35 1.44
-3 7 -7 2.1 1.56
3 -7 -7 3.05 1.37
-4 7 7 5.54 1.38
4 7 -7 4.49 1.61
-4 7 7 4.8 1.67
-4 -7 -7 5.03 1.66
4 7 7 4.15 1.45
-4 7 -7 5.38 1.6
4 -7 -7 4.07 1.49
-4 7 -7 5.23 1.68
-5 7 7 13.99 2.06
-5 -7 -7 14.51 2.06
-5 7 7 10.79 1.58
5 7 7 14.75 1.75
-5 7 -7 14.9 1.94
-5 7 -7 15.23 2.83
5 -7 -7 13.81 1.76
-6 -7 -7 1.53 1.73
-6 7 7 2.8 1.71
-6 7 7 1.03 1.35
6 7 7 0.69 1.46
6 -7 -7 3.32 1.59
-7 7 7 13.75 2.05
-7 7 7 13.83 1.76
-7 -7 -7 15.4 2.05
7 7 7 14.31 1.9
0 -8 -7 -0.41 1.4
0 8 -7 -0.27 1.41
0 8 -7 1.07 1.55
0 8 7 -1.23 1.19
-1 -8 -7 9.41 1.69
1 8 -7 10.32 1.73
-1 8 7 7.26 1.4
1 8 -7 5.58 1.45
-1 8 -7 8.93 1.72
-1 8 -7 8.69 1.62
1 8 7 6.98 1.44
-2 8 7 1.76 1.29
-2 -8 -7 0.33 1.48
2 8 -7 3.77 1.6
-2 8 -7 2.43 1.6
2 8 7 1.5 1.31
-2 8 -7 4.41 1.62
2 -8 -7 3.14 1.66
-3 -8 -7 2.64 1.68
3 8 -7 2.37 1.66
-3 8 7 1.26 1.2
3 8 7 3.51 1.37
-3 8 -7 1.8 1.65
-3 8 -7 3.77 1.62
3 -8 -7 4.32 1.49
-4 -8 -7 2.51 1.74
-4 8 7 4.38 1.37
4 8 -7 1.86 1.7
-4 8 -7 2.91 1.66
-4 8 -7 2.44 1.75
4 8 7 3.93 1.43
5 8 -7 4.64 1.72
-5 8 7 4.83 1.37
-5 -8 -7 5.7 1.91
5 8 7 9.16 1.67
-5 8 -7 4.22 1.83
-6 8 7 1.78 1.78
-6 8 7 -0.09 1.37
0 9 7 4.16 1.42
0 9 -7 5.42 1.79
-1 -9 -7 8.38 1.84
1 9 -7 9.37 1.88
-1 9 7 10.6 1.58
1 9 7 8.96 1.57
-1 9 -7 9.04 1.7
-1 9 -7 8.8 1.82
2 9 -7 -1.23 1.65
-2 9 7 2.57 1.34
-2 -9 -7 -1.11 1.7
-2 9 -7 0.24 1.61
-2 9 -7 0.77 1.67
2 9 7 2.68 1.37
3 9 -7 5.68 1.87
-3 -9 -7 3.63 1.9
-3 9 7 7.05 1.73
-3 9 -7 3.31 1.75
-3 9 -7 6.13 1.79
3 9 7 8.47 1.54
0 0 -8 4.78 1.13
0 0 8 7.73 1.53
0 0 8 5.63 1.2
-1 0 8 -0.78 1.06
1 0 -8 -0.79 0.98
1 0 8 1.57 1.14
-1 0 -8 0.85 1.05
-1 0 8 -0.02 1.32
2 0 -8 47.22 2.06
2 0 8 44.45 2.25
-2 0 8 46.26 2.51
-2 0 8 45.52 2.27
-2 0 -8 48.83 2.16
-3 0 -8 -0.91 1.11
-3 0 8 2.29 1.48
3 0 -8 0.06 1.04
3 0 8 -0.32 1.19
4 0 -8 54.07 2.31
4 0 8 54.12 2.46
-4 0 8 45.31 2.77
-4 0 -8 53.21 2.33
-5 0 -8 -0.45 1.17
5 0 8 -0.19 1.26
-5 0 8 -0.34 1.54
5 0 -8 0.89 1.19
6 0 8 4.42 1.49
-6 0 -8 4.95 1.29
-6 0 8 4.16 1.73
6 0 -8 3.17 1.23
6 0 -8 5.17 1.43
7 0 -8 -0.61 1.36
-7 0 -8 -0.01 1.22
7 0 8 -0.27 1.45
-7 0 8 0.99 1.7
7 0 -8 -0.02 1.23
8 0 8 15.1 1.85
8 0 -8 19.15 1.8
8 0 -8 14.69 1.64
-8 0 8 16.45 2.26
-9 0 -8 1.83 1.38
9 0 8 2.16 1.67
9 0 -8 -0.44 1.46
-9 0 8 3.85 2.06
9 0 -8 1.21 1.39
10 0 -8 20.28 1.91
10 0 -8 18.31 2.39
10 0 8 17.55 2.07
0 1 -8 24.01 1.84
0 -1 8 28.95 1.91
0 -1 -8 25.83 1.82
0 1 8 27.22 1.96
1 -1 8 2.93 1.18
-1 1 8 4.12 1.44
-1 -1 -8 3.23 1.1
1 1 -8 1.52 1.03
-1 1 8 3.22 1.13
-1 -1 8 4.22 1.38
-1 1 -8 2.33 1.12
1 -1 -8 2.66 1.1
1 1 8 4.15 1.2
-1 -1 8 3.28 1.16
-2 -1 -8 46.16 2.08
-2 1 8 46.01 2.55
2 1 -8 43.06 2.06
-2 1 8 45.54 2.25
2 -1 8 45.03 2.16
2 -1 -8 41.84 2.07
2 1 8 47.37 2.31
-2 1 -8 44.24 2.15
-2 -1 8 44.65 2.4
-2 -1 8 42.53 2.2
3 1 -8 4.74 1.15
-3 1 8 4.99 1.62
3 -1 8 3.34 1.25
-3 -1 -8 4.69 1.19
3 -1 -8 3.8 1.12
-3 -1 8 7.89 1.63
3 1 8 5.53 1.34
-3 1 -8 5.6 1.27
-4 1 8 39.46 2.67
-4 -1 -8 41.04 2.06
4 -1 8 42.18 2.2
4 1 -8 38.76 2.19
-4 1 -8 38.5 2.24
-4 -1 8 38.11 2.57
4 -1 -8 35.42 2.14
4 1 8 37.42 2.29
-5 1 8 3.46 1.63
5 -1 8 0.86 1.28
5 1 -8 2.02 1.25
-5 -1 -8 0.17 1.11
-5 -1 8 -0.13 1.49
5 -1 -8 2.11 1.23
5 1 8 1.2 1.34
-5 1 -8 1.13 1.24
5 -1 -8 1.5 1.09
-6 -1 -8 16.11 1.44
-6 1 8 11.92 1.94
6 -1 8 16.08 1.61
6 1 -8 19.2 1.63
-6 -1 8 14.66 1.97
6 -1 -8 12.47 1.43
-6 1 -8 18.63 1.66
6 1 8 18.24 1.82
6 -1 -8 15.2 1.59
7 1 -8 1.13 1.26
7 -1 8 1.57 1.43
-7 1 8 1.29 1.74
7 1 -8 4.89 1.46
-7 -1 8 4.35 1.82
7 -1 -8 1.71 1.17
7 1 8 1.77 1.53
-7 1 -8 2.83 1.39
7 -1 -8 3.97 1.41
8 1 -8 21.55 1.86
-8 -1 -8 16.77 1.76
8 -1 8 18.84 1.87
-8 1 8 21.64 2.45
8 1 -8 23.7 1.88
8 1 8 19.54 2
-8 1 -8 20.58 1.79
8 -1 -8 20.9 1.79
-8 -1 8 22.59 2.4
8 -1 -8 20.98 1.86
9 1 -8 0.58 1.38
9 1 -8 3.99 1.52
-9 1 8 6.07 2.04
-9 -1 -8 3.77 1.41
9 -1 -8 3.87 1.58
-9 -1 8 4.34 2.04
9 -1 -8 3.26 1.39
9 1 8 2.89 1.74
-10 -1 -8 9.11 1.63
10 -1 -8 17.72 2.27
10 -1 -8 16.3 2.2
0 2 -8 34.68 2
0 -2 8 36.26 1.92
0 2 8 35.95 2.1
0 -2 -8 38.24 2.02
-1 2 8 3.51 1.43
1 -2 8 2.31 1.13
1 2 -8 2.3 1.11
-1 2 8 2.1 1.09
-1 -2 -8 2.37 1.13
1 -2 -8 2.47 1.12
-1 -2 8 4.26 1.14
1 2 8 3.34 1.19
-1 -2 8 4.68 1.35
-1 2 -8 2.43 1.16
-2 2 8 47.29 2.67
2 2 -8 49.76 2.15
-2 2 8 47.65 2.34
-2 -2 -8 50.59 2.15
2 -2 8 52.57 2.13
2 2 8 50.97 2.39
-2 2 -8 47.64 2.28
-2 -2 8 54.17 2.4
2 -2 -8 50.05 2.24
-2 -2 8 52.2 2.17
3 2 -8 13.73 1.43
-3 2 8 18.76 1.98
-3 2 8 12.76 1.51
3 -2 8 11.56 1.3
-3 -2 -8 15.01 1.35
-3 -2 8 12.93 1.46
3 -2 -8 12.14 1.13
-3 2 -8 14.66 1.54
3 -2 -8 16.82 1.47
-3 -2 8 17.43 1.8
3 2 8 11.94 1.49
4 -2 8 45.14 2.36
4 2 -8 44.22 2.25
-4 2 8 46.01 2.83
-4 -2 -8 46.86 2.03
4 -2 -8 44.23 1.86
-4 2 -8 43.88 2.39
4 2 8 45.36 2.5
4 -2 -8 44.45 2.28
-4 -2 8 47.45 2.56
5 2 -8 1.26 1.26
-5 2 8 0.83 1.62
-5 -2 -8 1.25 1.07
5 -2 -8 1.71 1.22
5 2 8 -1.13 1.32
5 -2 -8 -0.25 0.98
-5 2 -8 4.14 1.39
-5 -2 8 3.6 1.59
6 2 -8 22.01 1.71
-6 2 8 24.16 2.37
-6 2 -8 23.59 1.92
6 2 8 29.54 2.14
6 -2 -8 24.3 1.81
6 -2 -8 27.17 1.95
-6 -2 8 21.92 2.15
-7 2 8 3.75 1.83
7 2 -8 1.35 1.34
7 2 -8 2.19 1.36
-7 -2 -8 1.38 1.3
7 -2 -8 2.59 1.51
7 -2 -8 1.28 1.17
-7 2 -8 2.58 1.5
7 2 8 3.2 1.57
-7 -2 8 6.07 1.81
8 2 -8 24.44 1.86
-8 2 8 25.96 2.62
8 2 -8 21.18 1.96
-8 -2 -8 27.24 2.36
-8 -2 8 25.23 2.48
8 -2 -8 24.98 2.08
8 -2 -8 27.69 2.15
-8 2 -8 24.36 1.98
8 2 8 23.86 2.17
-9 -2 -8 5.06 1.56
-9 2 8 10.01 2.18
9 2 -8 3.33 1.43
9 -2 -8 6.47 1.52
9 -2 -8 5.39 1.65
9 2 8 3.91 1.77
-9 2 -8 8.23 1.72
-9 -2 8 10 2.21
10 -2 -8 23.3 3.22
0 -3 -8 17.41 1.46
0 3 8 16.36 1.49
0 3 -8 15.57 1.42
-1 -3 -8 2.18 1.14
-1 3 8 5.47 1.51
1 3 -8 2.97 1.18
-1 3 8 3.43 1.14
-1 3 -8 3.69 1.24
1 -3 -8 4.57 1.2
1 3 8 3.61 1.2
-2 3 8 33.04 2.46
-2 3 8 27.64 2.15
-2 -3 -8 33.11 1.96
2 3 -8 31.94 2.07
-2 3 -8 33.59 2.13
2 3 8 27.62 2.18
2 -3 -8 30.02 2.07
-3 3 8 4.43 1.57
3 3 -8 2.19 1.2
-3 -3 -8 4.32 1.12
-3 3 8 1.59 1.2
3 3 8 3.43 1.28
3 -3 -8 3.39 1.29
-3 3 -8 2.22 1.32
-4 -3 -8 27.08 2.1
-4 -3 -8 29.28 1.81
-4 3 8 28.1 2.58
4 3 -8 25.33 2.06
4 -3 -8 27.86 2.12
-4 -3 8 27.43 2.67
-4 3 -8 27.77 1.92
4 3 8 22.8 1.8
5 3 -8 2.42 1.3
-5 -3 -8 3.93 1.35
-5 3 8 4.1 1.77
5 -3 -8 1.25 1.23
-5 -3 8 5.47 1.56
5 3 8 5.7 1.53
-5 3 -8 3.67 1.46
-6 3 8 10.83 2.03
6 3 -8 11.38 1.5
-6 -3 -8 8.29 1.57
6 -3 -8 11.99 1.53
6 3 8 8.88 1.71
-6 3 -8 12.8 1.78
-6 -3 8 11.95 1.82
-7 3 8 3.5 1.91
7 3 -8 2.39 1.33
-7 -3 -8 2.05 1.42
-7 -3 8 3.82 1.75
7 3 8 2.99 1.65
-7 3 -8 1.59 1.61
7 -3 -8 1.16 1.39
8 3 -8 12.16 1.75
-8 -3 -8 12.17 1.81
-8 3 8 12.52 2.24
8 3 8 12.89 1.93
-8 3 -8 14.03 1.96
8 -3 -8 16.2 1.89
-8 -3 8 14.15 2.16
9 3 -8 1.08 1.47
-9 -3 -8 0.82 1.46
-9 3 8 1.86 1.94
-9 3 -8 -0.59 1.69
-9 -3 8 4.67 1.97
9 -3 -8 0.41 1.56
9 3 8 1.57 1.66
0 -4 -8 35.75 2.03
0 4 8 38.84 2.34
0 -4 -8 30.79 1.93
0 4 -8 33.82 2.19
-1 4 8 1.62 1.14
-1 -4 -8 3.24 1.17
1 4 -8 2 1.26
-1 -4 -8 3.32 1.23
1 -4 -8 2.31 1.11
1 -4 -8 2.46 1.21
1 4 8 2.45 1.25
-1 4 -8 0.94 1.25
-2 4 8 9.54 1.39
2 4 -8 10.52 1.44
-2 4 8 14.67 1.88
-2 -4 -8 10.69 1.51
-2 -4 -8 14.71 1.33
2 -4 -8 15.31 1.53
2 -4 -8 11.33 1.26
-2 4 -8 8.3 1.45
2 4 8 9.58 1.46
-3 4 8 4.05 1.34
3 4 -8 4.69 1.26
-3 -4 -8 3.5 1.14
-3 -4 -8 2.81 1.36
-3 4 8 3.61 1.66
3 -4 -8 2.72 1.27
-3 4 -8 2.46 1.37
3 4 8 5.07 1.38
-4 4 8 9.3 1.51
-4 -4 -8 7.66 1.55
-4 4 8 9.7 1.86
4 4 -8 7.39 1.38
4 -4 -8 7.56 1.4
-4 4 -8 4.83 1.5
4 4 8 9.09 1.57
-5 -4 -8 -0.58 1.33
5 4 -8 0.1 1.26
-5 4 8 2.21 1.73
5 4 8 0.19 1.38
5 -4 -8 2.03 1.34
-5 4 -8 0.01 1.51
-6 4 8 25.08 2.5
6 4 -8 21.76 1.72
-6 -4 -8 18.72 1.97
-6 4 -8 21.07 2.02
6 -4 -8 23.36 1.96
6 4 8 26.4 2.17
-7 4 8 4.4 1.93
-7 -4 -8 2.29 1.54
7 4 8 0.72 1.59
-7 4 -8 1.38 1.67
7 -4 -8 2.56 1.61
-8 -4 -8 9.39 1.82
8 4 -8 6.05 1.54
-8 4 8 9.76 2.09
8 4 8 7.71 1.81
-8 4 -8 10.34 1.97
8 -4 -8 8.38 1.68
0 5 8 30.23 2.28
0 -5 -8 35.33 2.06
0 5 -8 32.66 2.3
0 -5 -8 30.24 2.1
-1 -5 -8 1.44 1.28
-1 5 8 1.85 1.25
-1 -5 -8 1.85 1.13
1 5 -8 -0.19 1.32
1 -5 -8 -0.48 1.17
-1 5 -8 3.02 1.39
1 -5 -8 2.59 1.25
1 5 8 1.9 1.28
-2 -5 -8 19.58 1.81
-2 5 8 21.07 1.76
2 5 -8 23.07 1.75
-2 5 8 19.36 2.08
2 -5 -8 22.47 1.67
-2 5 -8 24.09 1.86
2 5 8 19.88 1.81
2 -5 -8 22.07 2.27
-3 -5 -8 6.07 1.57
-3 5 8 4.41 1.38
-3 5 8 7.69 1.84
3 5 -8 7.2 1.44
3 5 8 6.77 1.56
-3 5 -8 3.93 1.47
3 -5 -8 7.11 1.43
4 5 -8 17.64 1.63
-4 -5 -8 16.51 1.86
-4 5 8 20.36 2.25
-4 5 8 19.07 1.84
-4 5 -8 16.02 1.83
4 5 8 22.29 2.02
4 -5 -8 20.26 1.81
5 5 -8 -0.53 1.27
-5 -5 -8 0.41 1.51
-5 5 8 2.03 1.45
-5 5 8 0.86 1.71
5 5 8 0.22 1.44
-5 5 -8 0.73 1.63
5 -5 -8 -0.21 1.33
-6 -5 -8 20.59 2
-6 5 8 21.22 2.37
-6 5 -8 22.35 2.11
6 5 8 21.42 2.14
6 -5 -8 23.2 1.96
-7 -5 -8 2.23 1.61
-7 5 8 0.95 1.78
7 5 8 -1.7 1.5
7 -5 -8 1.09 1.51
-7 5 -8 0.71 1.76
-8 -5 -8 9.09 2.29
-8 5 8 13.34 2.83
8 5 -8 7.56 2.46
8 -5 -8 14.5 2.87
-8 5 -8 9.54 2.14
0 6 8 30.81 2.36
0 -6 -8 25.18 2.07
0 6 -8 30.28 2.34
0 -6 -8 26.93 1.98
-1 -6 -8 2.89 1.41
-1 6 8 5.3 1.43
1 6 -8 1.39 1.41
-1 6 -8 4.33 1.51
1 -6 -8 1.87 1.27
1 6 8 4.59 1.42
1 -6 -8 6.04 1.35
-2 -6 -8 12.6 1.75
2 6 -8 12.83 1.63
-2 6 8 11.61 1.56
2 6 8 12.72 1.69
-2 6 -8 11.54 1.7
2 -6 -8 13.48 1.59
3 6 -8 3.28 1.43
-3 -6 -8 1.48 1.53
-3 6 8 1.99 1.66
-3 6 8 2.19 1.36
-3 6 -8 1.43 1.58
3 -6 -8 0.27 1.38
3 6 8 0.97 1.41
-4 6 8 10.78 1.67
-4 6 8 9.87 1.97
-4 -6 -8 9.34 1.79
-4 6 -8 11.26 1.83
4 6 8 11.03 1.74
4 -6 -8 9.87 1.62
-5 6 8 4.09 1.85
-5 6 8 5.32 1.61
-5 -6 -8 3 1.69
-5 6 -8 1.65 1.69
5 -6 -8 4.41 1.5
5 6 8 3.93 1.64
-6 6 8 17.18 1.93
-6 -6 -8 16.95 2.09
-6 6 8 19.45 2.37
6 -6 -8 22.06 1.96
-6 6 -8 16.8 2.11
6 6 8 16.43 2.02
-7 6 8 0.06 1.72
-7 -6 -8 1.19 2.55
-7 6 8 3.26 1.96
-7 6 -8 0.32 2.9
7 6 8 0.14 2.47
7 -6 -8 -1.59 1.87
0 7 8 16.6 1.78
0 7 -8 23.51 1.9
0 -7 -8 19.25 1.84
-1 7 8 0.37 1.29
1 7 -8 0.03 1.46
-1 -7 -8 1 1.45
1 7 8 1.16 1.36
1 -7 -8 0.66 1.37
-1 7 -8 1.96 1.54
-2 7 8 4.06 1.45
-2 -7 -8 2.11 1.55
2 7 -8 4.59 1.48
2 -7 -8 2.44 1.33
2 7 8 1.54 1.43
-2 7 -8 -0.65 1.55
-3 7 8 -0.6 1.27
-3 -7 -8 -1.71 1.5
-3 7 -8 -1.1 1.58
3 7 8 1.69 1.42
3 -7 -8 2.74 1.44
-4 -7 -8 1.37 1.58
-4 7 8 1.92 1.41
-4 7 -8 0.12 1.69
4 -7 -8 2.96 1.52
4 7 8 2.83 1.56
-5 -7 -8 -1.3 1.63
-5 7 8 0.41 1.73
-5 7 8 0.57 1.45
5 7 8 0.35 1.5
-5 7 -8 -2.18 1.72
5 -7 -8 1.11 1.55
0 -8 -8 5.14 2.34
0 8 -8 6.48 1.63
0 8 8 8.91 1.61
-1 -8 -8 -1.64 1.51
1 8 -8 2.79 2.04
-1 8 8 1.02 1.36
-1 8 -8 1.11 1.58
1 8 8 1.05 1.39
-2 -8 -8 3.54 1.72
-2 8 8 2.46 1.39
2 8 8 7.21 1.58
-2 8 -8 1.86 1.67
-3 -8 -8 0.44 1.63
-3 8 8 1.13 1.34
3 8 8 -0.42 1.39
-3 8 -8 2.79 1.71
3 -8 -8 0.83 1.52
4 -8 -8 6.95 2.21
0 0 9 0.25 1.29
0 0 -9 -0.28 1.22
1 0 9 11.19 1.54
-1 0 9 8.66 1.75
-1 0 9 11.55 1.54
-1 0 -9 11.16 1.47
1 0 -9 10.62 1.42
-2 0 -9 -0.21 1.28
-2 0 9 0.09 1.57
2 0 9 -0.51 1.3
2 0 -9 -2.05 1.12
-2 0 9 0.27 1.32
-3 0 9 17.64 1.77
3 0 -9 19.46 1.65
-3 0 -9 17.74 1.68
-3 0 9 19.15 2.08
3 0 9 19.67 1.74
-4 0 9 1.64 1.73
-4 0 9 -2.62 1.38
-4 0 -9 0.32 1.34
4 0 9 -0.13 1.4
4 0 -9 -0.45 1.26
5 0 -9 6.82 1.5
-5 0 -9 8.01 1.56
5 0 9 7.64 1.61
-5 0 9 9.35 1.92
6 0 -9 -0.84 1.24
-6 0 9 1.96 1.83
-6 0 -9 1.72 1.46
6 0 -9 -1.78 1.38
6 0 9 -1.33 1.47
-7 0 -9 6.93 1.77
7 0 9 7.31 1.75
7 0 -9 4.46 1.53
-7 0 9 6.4 1.93
7 0 -9 5.22 1.43
8 0 -9 0.5 1.48
-8 0 9 2.04 1.87
8 0 9 -1.63 1.56
8 0 -9 -0.46 1.25
0 1 -9 2.04 1.24
0 -1 -9 1.62 1.24
0 1 9 3.82 1.41
0 -1 9 5.67 1.37
1 1 -9 26.31 2.04
1 -1 9 28.77 2.17
-1 1 9 29.53 2.54
-1 -1 -9 26.86 2.16
-1 1 9 28.46 2.27
-1 1 -9 22.9 1.77
1 1 9 26.28 1.88
-1 -1 9 28 2.12
1 -1 -9 26.45 2.14
-1 -1 9 28.16 2.33
-2 1 9 1.74 1.34
2 -1 9 3.7 1.36
2 1 -9 2.24 1.28
-2 -1 -9 1.09 1.29
-2 1 9 1.83 1.63
-2 -1 9 -0.01 1.27
2 -1 -9 -0.24 1.2
-2 1 -9 3.54 1.37
2 1 9 3.23 1.39
-2 -1 9 1.59 1.56
-3 -1 -9 22.11 1.71
-3 1 9 18.67 1.82
-3 1 9 23.22 2.24
3 -1 9 22.58 1.7
3 1 -9 19.64 1.69
3 -1 -9 18.57 1.63
-3 -1 9 22.92 2.11
-3 1 -9 20.86 1.77
3 1 9 23.72 1.88
-3 -1 9 20.5 1.8
4 1 -9 -0.59 1.25
-4 1 9 2.14 1.7
4 -1 9 0.13 1.3
-4 -1 -9 3.47 1.31
-4 1 9 0.73 1.46
-4 -1 9 4.11 1.78
-4 -1 9 0.78 1.43
-4 1 -9 1.38 1.46
4 1 9 0.84 1.45
4 -1 -9 2.66 1.13
4 -1 -9 3.08 1.3
-5 1 9 20.19 2.33
5 -1 9 15.27 1.69
-5 -1 -9 17.44 1.63
5 1 -9 16.29 1.72
5 1 9 17.6 1.84
5 -1 -9 12.98 1.43
-5 -1 9 17.85 2.14
-5 1 -9 14.65 1.75
5 -1 -9 17.94 1.75
6 1 -9 2.06 1.46
-6 -1 -9 1.59 1.42
6 -1 9 2.24 1.93
-6 1 9 7.06 2
6 1 -9 3.18 1.39
-6 -1 9 6.09 1.83
6 -1 -9 1.98 1.23
6 1 9 2.02 1.59
6 -1 -9 2.41 1.53
-6 1 -9 4.42 1.56
-7 1 9 15.94 2.34
7 1 -9 15.25 1.79
7 1 -9 11.35 1.65
7 1 9 18.7 1.98
7 -1 -9 11.99 1.56
7 -1 -9 17.66 1.96
-7 1 -9 14.83 1.82
-7 -1 9 16.95 2.2
8 1 -9 -1.48 1.45
-8 -1 -9 3.38 1.51
-8 1 9 4.2 2
8 1 -9 3.37 1.5
8 -1 -9 2.84 1.41
8 -1 -9 2.16 1.58
-8 -1 9 4.52 1.92
8 1 9 4.91 1.82
0 2 9 15.51 1.7
0 -2 -9 12.38 1.56
0 2 -9 13.96 1.54
-1 2 9 34.17 2.37
-1 2 9 35.37 2.69
-1 -2 -9 37.39 2.25
1 2 -9 30.48 2.19
1 -2 -9 35.6 2.27
1 2 9 35.85 2.37
-1 2 -9 32.42 2.27
-2 -2 -9 0.71 1.27
-2 2 9 1.01 1.35
2 2 -9 -0.08 1.23
-2 2 9 -1.53 1.57
2 -2 -9 -1.63 1.27
-2 2 -9 1.5 1.38
2 2 9 1.64 1.39
-2 -2 9 -0.38 1.51
-3 2 9 40.64 2.93
-3 2 9 35.49 2.57
-3 -2 -9 37.8 2.23
3 2 -9 36.39 2.31
3 -2 -9 30.16 2.27
-3 2 -9 32.87 2.51
-3 -2 9 34.84 2.62
3 2 9 36.4 2.5
-3 -2 9 31.68 2.3
-4 -2 -9 0.74 1.24
-4 2 9 2.29 1.51
-4 2 9 3.54 1.8
4 2 -9 1.43 1.36
4 -2 -9 0.96 1.35
-4 -2 9 -0.18 1.41
-4 2 -9 0.26 1.49
4 2 9 0.49 1.43
-4 -2 9 4.22 1.66
-5 -2 -9 24.87 1.98
-5 2 9 26.7 2.51
5 2 -9 25.88 1.92
-5 2 -9 26.45 2.05
5 -2 -9 26.17 1.98
-5 -2 9 27.9 2.65
5 2 9 20.46 1.94
6 2 -9 5.55 1.54
-6 -2 -9 5.08 1.56
-6 2 9 11.38 2.17
-6 2 -9 6.03 1.69
6 2 9 10.41 1.85
6 -2 -9 8.79 1.56
-6 -2 9 12.15 1.96
7 2 -9 14.73 1.72
-7 2 9 26.27 2.58
-7 -2 -9 16.56 1.86
7 2 -9 19.48 1.9
7 2 9 20.78 2.17
-7 2 -9 21.3 2.05
7 -2 -9 19.34 2.01
-7 -2 9 20.6 2.21
8 2 -9 0.31 1.46
-8 2 9 5.46 2.17
8 2 -9 -0.71 1.4
-8 -2 -9 0.46 1.38
-8 -2 9 3.9 1.81
8 2 9 0.78 1.75
8 -2 -9 0.72 1.55
-8 2 -9 0.51 1.62
0 -3 -9 4 1.38
0 3 -9 5.02 1.45
0 3 9 4.95 1.5
-1 -3 -9 7.68 1.44
1 3 -9 7.54 1.5
-1 3 9 11.99 1.65
1 -3 -9 7.34 1.46
-1 3 -9 6.08 1.47
1 3 9 6.44 1.57
-2 -3 -9 3.54 1.33
-2 3 9 2.42 1.38
-2 3 9 2.55 1.69
2 3 -9 3.27 1.36
-2 3 -9 -0.2 1.34
2 3 9 0.44 1.38
2 -3 -9 -0.26 1.3
-3 3 9 11.1 1.7
3 3 -9 11.82 1.56
-3 3 9 13.89 2.11
-3 -3 -9 11.16 1.46
3 -3 -9 14.63 1.72
-3 3 -9 11.18 1.66
3 3 9 12.39 1.76
-4 3 9 -0.15 1.45
-4 3 9 2.81 1.8
4 3 -9 3.1 1.46
-4 -3 -9 3.71 1.45
4 -3 -9 4.36 1.45
-4 3 -9 4.39 1.6
4 3 9 1.97 1.46
-5 -3 -9 8.03 1.61
-5 3 9 5.16 1.72
5 3 -9 8.04 1.57
-5 3 9 8.93 2.04
5 -3 -9 7.17 1.54
5 3 9 9.58 1.76
-5 3 -9 6.54 1.72
-6 -3 -9 4.39 1.59
-6 3 9 5.27 1.99
6 3 -9 2.53 1.48
6 3 9 4.65 1.72
-6 3 -9 1.7 1.68
6 -3 -9 3.07 1.45
7 3 -9 3.39 1.57
-7 3 9 6.97 2.13
-7 -3 -9 4.42 1.65
7 3 -9 2.59 1.52
7 3 9 2.11 1.71
-7 3 -9 4.16 1.79
7 -3 -9 3.49 1.5
-8 3 -9 -1.05 1.72
0 4 -9 3.98 1.5
0 4 9 3.89 1.44
0 -4 -9 4.05 1.38
0 -4 -9 5.94 1.35
1 4 -9 10.98 1.65
-1 4 9 9.46 1.56
-1 -4 -9 11.58 1.61
-1 -4 -9 12.07 1.5
1 4 9 9.95 1.64
1 -4 -9 12.19 1.45
1 -4 -9 9.98 1.51
-1 4 -9 9.91 1.64
-2 -4 -9 1.17 1.25
-2 4 9 4.17 1.8
2 4 -9 3.34 1.51
-2 4 9 1.62 1.36
-2 -4 -9 1.83 1.41
-2 4 -9 3.69 1.5
2 -4 -9 -0.81 1.31
2 4 9 -0.36 1.38
-3 4 9 7.28 1.95
-3 4 9 6.43 1.56
3 4 -9 5.5 1.49
-3 -4 -9 5.89 1.63
3 -4 -9 6.28 1.59
-3 4 -9 7.23 1.66
3 4 9 8.12 1.7
-4 4 9 2.29 1.86
-4 4 9 -0.57 1.47
4 4 -9 -1.61 1.38
-4 -4 -9 0.31 1.49
4 -4 -9 3.35 1.44
-4 4 -9 1.07 1.62
4 4 9 1.92 1.56
-5 4 9 8.22 2.04
5 4 -9 5.74 1.54
-5 -4 -9 5.9 1.65
-5 4 9 5.89 1.7
-5 4 -9 9.67 1.91
5 -4 -9 6.36 1.57
5 4 9 7.54 1.78
-6 4 9 2.18 1.91
-6 -4 -9 0.87 1.54
6 4 -9 2.42 1.46
-6 4 9 0.17 1.61
6 4 9 0.99 1.62
-6 4 -9 3.16 1.77
6 -4 -9 2.54 1.61
-7 -4 -9 7.31 1.86
-7 4 9 7.46 2.12
7 4 9 5.64 1.82
-7 4 -9 4.54 1.86
7 -4 -9 5.02 1.6
0 -5 -9 3.87 1.43
0 -5 -9 5.46 1.4
0 5 9 2.63 1.44
0 5 -9 6.79 1.65
-1 -5 -9 20.02 1.88
-1 -5 -9 21.45 1.66
-1 5 9 22.92 2.07
1 5 -9 17.2 1.8
1 -5 -9 17.69 1.69
1 5 9 20.45 1.97
1 -5 -9 22.18 1.78
-1 5 -9 16.95 1.83
-2 5 9 -0.1 1.4
2 5 -9 -0.18 1.52
-2 -5 -9 0.07 1.43
2 5 9 0.91 1.46
-2 5 -9 1.32 1.54
2 -5 -9 2.5 1.39
-3 -5 -9 14.7 1.87
-3 5 9 16.71 2.31
-3 5 9 19.09 1.95
3 5 -9 17.22 1.77
-3 5 -9 14.36 1.92
3 -5 -9 18.91 1.77
3 5 9 20.51 2.07
-4 5 9 0.35 1.82
-4 -5 -9 -0.4 1.63
-4 5 9 -0.05 1.48
4 5 -9 2.63 1.47
4 -5 -9 0.56 1.44
-4 5 -9 0.65 1.65
4 5 9 -0.61 1.54
-5 -5 -9 12.4 2
-5 5 9 17.23 2.08
-5 5 9 17.08 2.35
5 -5 -9 21.26 2.07
5 5 9 18.97 2.14
-5 5 -9 15.61 2.08
-6 5 9 1.71 1.65
-6 -5 -9 6.12 1.77
-6 5 9 5.82 2.05
-6 5 -9 6.57 1.89
6 -5 -9 3.29 1.62
6 5 9 4.1 1.75
0 -6 -9 -0.16 1.39
0 6 -9 1.2 1.6
0 6 9 0.31 1.52
-1 6 9 10.48 1.78
-1 -6 -9 10.94 1.71
1 6 -9 10.19 1.74
-1 6 -9 10.81 1.79
1 -6 -9 13.51 1.62
1 6 9 11.42 1.82
-2 6 9 6.32 1.67
2 6 -9 7.5 1.64
-2 -6 -9 5.74 1.67
-2 6 -9 2.99 1.64
2 6 9 5.8 1.63
2 -6 -9 4.54 1.49
-3 -6 -9 7.42 1.82
-3 6 9 8.97 1.76
3 6 -9 6.59 1.59
3 -6 -9 10.01 1.69
-3 6 -9 6.68 1.8
3 6 9 9.56 1.77
-4 6 9 3.25 1.63
-4 6 9 3.46 1.91
-4 -6 -9 5.36 1.82
-4 6 -9 -0.37 1.72
4 -6 -9 4.72 1.6
4 6 9 4.62 1.8
-5 -6 -9 6.87 2.45
-5 6 9 7.7 1.97
-5 6 9 7.75 2.37
-5 6 -9 11.58 2.93
5 -6 -9 9.35 1.84
5 6 9 16.13 2.36
0 7 -9 0.3 1.63
0 7 9 -1.38 1.46
1 7 -9 4.59 1.67
-1 7 9 2.08 1.54
-1 -7 -9 3.49 1.54
-1 7 -9 3.95 1.7
1 7 9 4.56 1.65
-2 7 9 -0.98 1.46
2 7 -9 -0.04 1.57
-2 -7 -9 -0.85 1.5
2 7 9 -0.25 1.49
2 -7 -9 -0.51 1.41
-2 7 -9 -0.19 1.65
-3 7 9 2.47 1.76
-3 -7 -9 2.04 1.98
3 7 9 4.73 2.78
3 -7 -9 5.21 1.58
-3 7 -9 2.77 2.84
0 0 -10 13.27 1.67
0 0 10 14.91 1.7
-1 0 -10 1.12 1.44
1 0 -10 -1.38 1.38
1 0 10 -2.16 1.39
-1 0 10 0.54 1.44
-2 0 -10 5.67 1.56
2 0 10 4.78 1.53
-2 0 10 5.64 1.8
2 0 -10 6.65 1.57
-2 0 10 5.63 1.55
-3 0 10 3.88 1.8
-3 0 -10 0.21 1.5
3 0 -10 -1.96 1.33
3 0 10 3.04 1.57
-3 0 10 0.37 1.5
4 0 10 4.43 1.63
4 0 -10 4.23 1.49
-4 0 10 5.43 1.91
-4 0 10 4.76 1.68
-4 0 -10 4.31 1.56
-5 0 10 -1.14 1.6
5 0 -10 -0.46 1.46
-5 0 -10 1.22 1.54
5 0 10 -1.71 1.52
5 0 -10 -1.61 1.24
-5 0 10 3.02 1.86
-6 0 -10 7.21 1.68
-6 0 10 9.45 2.14
6 0 -10 10.9 1.86
6 0 -10 7.7 1.49
6 0 10 7.1 1.78
7 0 -10 -2.58 1.26
7 0 -10 0.36 1.75
-7 0 10 5.03 2.06
0 1 10 13.03 1.74
0 1 -10 10.07 1.66
0 -1 -10 8.33 1.63
0 -1 10 13.8 1.69
1 1 -10 -0.78 1.37
-1 -1 -10 0.46 1.43
-1 1 10 0.64 1.5
1 -1 10 1.36 1.48
-1 -1 10 1.46 1.42
-1 1 -10 -2.82 1.42
1 -1 -10 -2.3 1.41
1 1 10 1.77 1.52
-2 1 10 3.26 1.55
2 1 -10 4.38 1.5
-2 1 10 4.6 1.79
-2 -1 -10 4.3 1.5
-2 -1 10 4.12 1.52
-2 1 -10 2.64 1.55
2 1 10 3.39 1.55
2 -1 -10 4.44 1.58
-2 -1 10 4.6 2.02
-3 -1 -10 1.38 1.46
3 1 -10 -0.45 1.43
-3 1 10 0.38 1.81
-3 1 10 -0.51 1.49
3 -1 -10 -1.82 1.33
-3 -1 10 3.33 1.73
-3 -1 10 0.58 1.42
3 1 10 3.36 1.55
-3 1 -10 0.24 1.61
-4 1 10 4.93 1.98
-4 1 10 5.57 1.67
4 1 -10 2.12 1.56
-4 -1 -10 2.49 1.49
-4 -1 10 5.5 1.85
4 1 10 6.02 1.74
-4 -1 10 1.83 1.57
4 -1 -10 2.06 1.51
-4 1 -10 3.21 1.64
5 1 -10 0.58 1.54
-5 1 10 0.07 1.68
-5 1 10 2.39 1.93
-5 -1 -10 4.93 1.56
5 1 10 0.71 1.6
-5 -1 10 -1.52 1.58
-5 1 -10 -0.85 1.64
5 -1 -10 0.4 1.51
-5 -1 10 4.06 1.85
-6 1 10 5.67 1.85
-6 1 10 9.03 2.13
6 1 -10 4.63 1.49
6 1 -10 9.01 1.78
6 -1 -10 6.12 1.58
6 1 10 7.87 1.86
-6 -1 10 10.86 2.1
-6 1 -10 10.53 1.87
-6 -1 10 5.42 1.82
-7 1 10 2.5 2.58
7 1 -10 1.11 1.41
7 1 -10 2.49 1.82
7 1 10 1.22 1.73
-7 1 -10 -1.24 1.71
-7 -1 10 1.36 1.86
0 2 -10 10.74 1.69
0 -2 -10 9 1.66
0 2 10 7.36 1.62
1 2 -10 0.35 1.42
-1 -2 -10 3.11 1.52
-1 2 10 3.33 1.57
1 -2 -10 2.89 1.54
-1 2 -10 2.71 1.54
1 2 10 7.03 1.72
2 2 -10 6.45 1.58
-2 2 10 8.03 2.07
-2 -2 -10 7.36 1.57
-2 2 10 7.81 1.71
2 -2 -10 8.64 1.62
2 2 10 9.55 1.74
-2 2 -10 8.27 1.7
-3 2 10 1.27 1.57
3 2 -10 -0.42 1.5
-3 -2 -10 3.02 1.48
-3 2 10 0.09 1.85
3 -2 -10 0.2 1.46
3 2 10 0.17 1.53
-3 2 -10 2.6 1.69
4 2 -10 8.29 1.69
-4 -2 -10 6.42 1.54
-4 2 10 7.12 1.8
-4 2 10 10.05 2.17
4 2 10 8.24 1.79
4 -2 -10 5.92 1.71
-4 2 -10 6.72 1.86
5 2 -10 1.09 1.51
-5 2 10 -1.49 1.62
-5 2 10 3.36 2.01
-5 2 -10 -0.25 1.71
5 -2 -10 1.05 1.48
5 2 10 2 1.67
-6 -2 -10 7.33 1.67
-6 2 10 3.57 1.8
6 2 -10 4.24 1.61
-6 2 10 10.25 2.24
6 -2 -10 5.03 1.59
-6 2 -10 8.59 1.91
6 2 10 5.04 1.86
0 -3 -10 3.05 1.49
0 3 -10 5.59 1.61
0 3 10 4.89 1.6
-1 -3 -10 2.81 1.45
1 3 -10 -0.94 1.5
-1 3 10 6.06 1.7
1 3 10 3.36 1.61
1 -3 -10 3.54 1.56
-1 3 -10 0.79 1.56
-2 -3 -10 8.29 1.58
2 3 -10 6.88 1.66
-2 3 10 4.17 1.64
-2 -3 -10 5.71 1.58
-2 3 -10 4.25 1.69
2 3 10 7.62 1.79
2 -3 -10 6.31 1.61
-3 -3 -10 1.97 1.45
-3 3 10 5.83 1.71
-3 -3 -10 2.58 1.49
-3 3 10 5.74 2.04
3 3 -10 2.14 1.59
3 3 10 1.85 1.59
-3 3 -10 3.83 1.74
3 -3 -10 2.13 1.56
-4 3 10 8.43 1.82
4 3 -10 6.41 1.69
-4 -3 -10 4.23 1.6
-4 3 10 8.58 2.15
4 -3 -10 6.07 1.6
-4 3 -10 4.15 1.82
4 3 10 4.97 1.74
5 3 -10 -0.35 1.49
-5 -3 -10 4.46 1.66
-5 3 10 2.91 1.71
-5 3 10 3.14 1.99
5 -3 -10 3.45 1.68
-5 3 -10 0.29 1.76
5 3 10 1.87 1.72
-6 -3 -10 4.98 2.33
-6 3 10 3.75 2.9
6 3 -10 4.03 1.61
-6 3 10 3.06 1.96
6 -3 -10 3.16 2.5
6 3 10 3.64 2.02
-6 3 -10 3.42 1.9
0 -4 -10 3.67 1.5
0 -4 -10 7.34 1.53
0 4 10 5.97 1.71
0 4 -10 7.98 1.75
1 4 -10 1.6 1.65
-1 4 10 -0.93 1.55
-1 -4 -10 0.89 1.47
-1 -4 -10 0.3 1.41
-1 4 -10 -0.33 1.63
1 4 10 0.41 1.62
1 -4 -10 3.41 1.42
1 -4 -10 -1.37 1.4
-2 -4 -10 3.05 1.53
-2 -4 -10 0.71 1.67
2 4 -10 0.79 1.56
-2 4 10 2.06 1.62
2 -4 -10 3.36 1.54
2 4 10 5.25 1.75
-2 4 -10 4.31 1.74
-3 4 10 1.93 1.63
3 4 -10 3.47 1.62
-3 -4 -10 4.13 1.66
-3 4 10 3.68 2.04
3 -4 -10 3.93 1.55
-3 4 -10 1.31 1.7
3 4 10 -1.27 1.61
-4 4 10 5.31 2.03
4 4 -10 -0.13 1.55
-4 -4 -10 1.47 1.58
-4 4 10 3.54 1.71
4 -4 -10 7.2 1.66
4 4 10 1.48 1.66
-4 4 -10 1.78 1.8
5 4 -10 -1.18 1.53
-5 4 10 2.06 1.81
-5 -4 -10 1.97 1.85
-5 4 10 3.15 2.41
5 -4 -10 0.79 1.5
5 4 10 1.1 1.78
-5 4 -10 -0.49 1.87
0 -5 -10 3.51 1.52
0 5 10 5.05 1.75
0 -5 -10 4.18 1.59
0 5 -10 3.02 1.72
-1 5 10 0.87 1.59
-1 -5 -10 1.31 1.55
1 5 -10 3.67 1.7
1 5 10 -0.67 1.6
-1 5 -10 0.59 1.75
1 -5 -10 1.69 1.44
-2 -5 -10 5.31 1.72
-2 5 10 6.2 1.82
2 5 -10 4.13 1.67
2 5 10 4.9 1.81
-2 5 -10 5.31 1.79
2 -5 -10 8 1.64
3 5 -10 1.6 1.61
-3 -5 -10 0.84 1.71
-3 5 10 0.11 1.6
3 5 10 1.74 1.7
-3 5 -10 -1.27 1.72
3 -5 -10 -0.45 1.49
4 5 -10 3.89 1.68
4 -5 -10 3.95 2.47
0 6 -10 7.27 1.98
1 6 -10 0.77 1.87
-1 -6 -10 1.05 1.57
1 -6 -10 3.37 1.62
2 6 -10 4.65 2.58
2 -6 -10 5.94 1.8
0 0 11 -0.91 1.52
0 0 -11 0.69 1.64
1 0 11 5.23 1.66
-1 0 11 6.01 1.64
-1 0 -11 4.16 1.7
1 0 -11 6.24 1.77
2 0 11 -0.64 1.67
-2 0 -11 -0.86 1.63
-2 0 11 1.94 1.65
2 0 -11 -0.54 1.55
-3 0 -11 8.33 1.85
3 0 -11 9.11 1.76
-3 0 11 9 1.78
-3 0 11 10.76 2.11
-4 0 -11 -1.59 1.63
-4 0 11 0.83 1.61
-4 0 11 2.82 1.89
4 0 -11 -0.79 1.57
-5 0 11 -0.14 2.44
-5 0 11 7.42 3.07
-5 0 -11 3.07 2.03
0 -1 -11 0.77 1.63
0 1 11 2.65 1.65
0 1 -11 -1 1.6
-1 -1 -11 8.66 1.8
-1 1 11 8.11 1.71
1 1 -11 8.54 1.79
1 -1 -11 7.52 1.77
-1 1 -11 5.43 1.75
1 1 11 9.04 1.77
2 1 -11 -2.64 1.56
-2 -1 -11 -0.02 1.6
-2 1 11 0.16 1.6
2 -1 -11 -2.4 1.6
2 1 11 3.44 1.66
-2 1 -11 -0.36 1.66
-3 1 11 2.46 1.73
3 1 -11 0.39 1.65
-3 1 11 4.57 1.98
-3 -1 -11 0.31 1.57
-3 1 -11 1.39 1.7
3 1 11 -0.24 1.63
3 -1 -11 5.26 1.79
4 1 -11 0.9 1.7
-4 -1 -11 -0.3 1.62
-4 1 11 -0.37 1.63
-4 1 11 3.94 2.02
4 -1 -11 -2.69 1.68
4 1 11 -1.51 1.66
-4 1 -11 3.55 1.77
5 1 -11 3.42 1.67
0 -2 -11 0.68 1.63
0 2 -11 -3.88 1.57
0 2 11 0.55 1.67
-1 2 11 5.53 1.75
-1 -2 -11 5.85 1.75
1 2 -11 6.99 1.76
1 -2 -11 6.96 1.79
1 2 11 7.34 1.81
-1 2 -11 7.92 1.86
-2 -2 -11 1.96 1.66
2 2 -11 -0.74 1.61
-2 2 11 1.83 1.7
-2 2 -11 -0.8 1.75
2 2 11 -0.5 1.63
2 -2 -11 4.18 1.7
-3 -2 -11 1.25 1.6
3 2 -11 3.16 1.72
-3 2 11 5.23 1.8
-3 2 11 4.05 2.05
3 -2 -11 5.14 1.75
3 2 11 5.15 1.77
-3 2 -11 5.81 1.88
-4 2 11 1 2.26
-4 2 11 2.75 2.55
4 2 11 -1.03 1.92
-4 2 -11 0.97 3.01
0 -3 -11 1.58 1.4
0 -3 -11 -0.73 1.58
0 3 11 -0.72 1.69
0 3 -11 -3.18 1.58
-1 3 11 6.84 1.82
-1 -3 -11 6.86 1.72
-1 -3 -11 6.23 1.58
1 3 -11 3.83 1.73
1 3 11 5.41 1.78
-1 3 -11 3.33 1.83
1 -3 -11 4.33 1.71
-2 -3 -11 -0.04 1.55
-2 -3 -11 3.69 1.54
-2 3 11 3.19 1.82
2 3 -11 1.95 1.69
2 -3 -11 -0.54 1.54
2 3 11 2.99 1.75
-2 3 -11 2.19 1.83
3 3 -11 8.93 2.68
3 3 11 6.06 2.58
0 -4 -11 1.51 1.5
0 -4 -11 0 1.54
-1 -4 -11 5.11 1.88
-1 -4 -11 2.34 1.6
1 -4 -11 5.14 1.92
