#------------------------------------------------------------------------------
#$Date: 2019-11-22 02:14:26 +0200 (Fri, 22 Nov 2019) $
#$Revision: 231154 $
#$URL: file:///home/coder/svn-repositories/cod/cif/4/12/91/4129192.cif $
#------------------------------------------------------------------------------
#
# This file is available in the Crystallography Open Database (COD),
# http://www.crystallography.net/
#
# All data on this site have been placed in the public domain by the
# contributors.
#
data_4129192
loop_
_publ_author_name
'Yang, Qi-Liang'
'Xing, Yi-Kang'
'Wang, Xiang-Yang'
'Ma, Hong-Xing'
'Weng, Xin-Jun'
'Yang, Xiang'
'Guo, Hai-Ming'
'Mei, Tian-Sheng'
_publ_section_title
;
 Electrochemistry-Enabled Ir-Catalyzed Vinylic C-H Functionalization.
;
_journal_name_full               'Journal of the American Chemical Society'
_journal_paper_doi               10.1021/jacs.9b11915
_journal_year                    2019
_chemical_formula_sum            'C14 H10 O2 S2'
_chemical_formula_weight         274.34
_space_group_crystal_system      triclinic
_space_group_IT_number           2
_space_group_name_Hall           '-P 1'
_space_group_name_H-M_alt        'P -1'
_atom_sites_solution_hydrogens   mixed
_audit_creation_method           SHELXL-2013
_cell_angle_alpha                80.8990(10)
_cell_angle_beta                 69.3780(10)
_cell_angle_gamma                69.1160(10)
_cell_formula_units_Z            2
_cell_length_a                   8.0846(3)
_cell_length_b                   8.5347(2)
_cell_length_c                   10.5749(3)
_cell_measurement_reflns_used    6009
_cell_measurement_temperature    296(2)
_cell_measurement_theta_max      55.015
_cell_measurement_theta_min      5.694
_cell_volume                     637.60(3)
_computing_cell_refinement       'Bruker SAINT'
_computing_data_collection       'Bruker APEX2'
_computing_data_reduction        'Bruker SAINT'
_computing_molecular_graphics    'Bruker SHELXTL'
_computing_publication_material  'Bruker SHELXTL'
_computing_structure_refinement  'SHELXL-2013 (Sheldrick, 2013)'
_computing_structure_solution    'SHELXS-97 (Sheldrick 2008)'
_diffrn_ambient_temperature      296(2)
_diffrn_measured_fraction_theta_full 0.987
_diffrn_measured_fraction_theta_max 0.988
_diffrn_measurement_device_type  'Bruker APEX-II CCD'
_diffrn_measurement_method       '\f and \w scans'
_diffrn_radiation_type           MoK\a
_diffrn_radiation_wavelength     0.71073
_diffrn_reflns_av_R_equivalents  0.0334
_diffrn_reflns_av_unetI/netI     0.0267
_diffrn_reflns_Laue_measured_fraction_full 0.987
_diffrn_reflns_Laue_measured_fraction_max 0.988
_diffrn_reflns_limit_h_max       9
_diffrn_reflns_limit_h_min       -9
_diffrn_reflns_limit_k_max       10
_diffrn_reflns_limit_k_min       -10
_diffrn_reflns_limit_l_max       13
_diffrn_reflns_limit_l_min       -13
_diffrn_reflns_number            9408
_diffrn_reflns_point_group_measured_fraction_full 0.987
_diffrn_reflns_point_group_measured_fraction_max 0.988
_diffrn_reflns_theta_full        25.242
_diffrn_reflns_theta_max         25.996
_diffrn_reflns_theta_min         2.847
_exptl_absorpt_coefficient_mu    0.407
_exptl_absorpt_correction_T_max  0.7456
_exptl_absorpt_correction_T_min  0.6371
_exptl_absorpt_correction_type   multi-scan
_exptl_absorpt_process_details   sadabs
_exptl_crystal_colour            colorless
_exptl_crystal_density_diffrn    1.429
_exptl_crystal_description       prismatic
_exptl_crystal_F_000             284
_exptl_crystal_size_max          0.200
_exptl_crystal_size_mid          0.180
_exptl_crystal_size_min          0.130
_refine_diff_density_max         0.231
_refine_diff_density_min         -0.283
_refine_diff_density_rms         0.040
_refine_ls_extinction_coef       0.28(3)
_refine_ls_extinction_expression Fc^*^=kFc[1+0.001xFc^2^\l^3^/sin(2\q)]^-1/4^
_refine_ls_extinction_method     SHELXL
_refine_ls_goodness_of_fit_ref   1.053
_refine_ls_hydrogen_treatment    mixed
_refine_ls_matrix_type           full
_refine_ls_number_parameters     191
_refine_ls_number_reflns         2475
_refine_ls_number_restraints     12
_refine_ls_restrained_S_all      1.056
_refine_ls_R_factor_all          0.0434
_refine_ls_R_factor_gt           0.0390
_refine_ls_shift/su_max          0.014
_refine_ls_shift/su_mean         0.001
_refine_ls_structure_factor_coef Fsqd
_refine_ls_weighting_details
'w=1/[\s^2^(Fo^2^)+(0.0598P)^2^+0.2006P] where P=(Fo^2^+2Fc^2^)/3'
_refine_ls_weighting_scheme      calc
_refine_ls_wR_factor_gt          0.1084
_refine_ls_wR_factor_ref         0.1135
_reflns_Friedel_coverage         0.000
_reflns_number_gt                2223
_reflns_number_total             2475
_reflns_threshold_expression     'I > 2\s(I)'
_cod_data_source_file            ja9b11915_si_004.cif
_cod_data_source_block           mo_d8v18917_0m
_cod_database_code               4129192
_shelx_space_group_comment
; 
The symmetry employed for this shelxl refinement is uniquely defined 
by the following loop, which should always be used as a source of 
symmetry information in preference to the above space-group names. 
They are only intended as comments. 
;
_shelx_estimated_absorpt_t_min   0.923
_shelx_estimated_absorpt_t_max   0.949
_shelxl_version_number           2013-4
_shelx_res_file
; 
TITL mo_d8v18917_0m_a.res in P-1 
CELL 0.71073 8.0846 8.5347 10.5749 80.899 69.378 69.116 
ZERR 2 0.0003 0.0002 0.0003 0.001 0.001 0.001 
LATT 1 
SFAC C  H  O  S 
UNIT 28 20 4 4 
OMIT  -3.00  52.00 
L.S. 9 
ACTA 
BOND $H 
FMAP 2 
PLAN 20 
LIST 4 
simu 0.004 s2 s2' c7 c7' 
size 0.20 0.18 0.13 
wpdb -1 
mpla s2 c6 > c9 
mpla s1 c10 > c13 
mpla o2 c1 > c5 
htab 
conf 
EQIV $1 x-1, y, z 
HTAB C11 S2_$1 
EQIV $2 -x, -y+1, -z+2 
HTAB C12 S2'_$2 
EQIV $3 x-1, y, z+1 
HTAB C13 O1_$3 
HTAB C7 S1 
EQIV $4 -x+2, -y+1, -z+1 
HTAB C9 O1_$4 
TEMP 23 
WGHT    0.059800    0.200600 
EXTI    0.275718 
FVAR       2.39711 
S1    4    0.081602    0.860677    0.869809    11.00000    0.06530    0.06000 = 
         0.04315   -0.01291   -0.00258   -0.02002 
O1    3    0.746382    0.810739    0.288975    11.00000    0.05675    0.07276 = 
         0.04500    0.00291    0.00154   -0.02428 
O2    3    0.636790    0.680916    0.480485    11.00000    0.03532    0.05183 = 
         0.03534   -0.00156   -0.00375   -0.01143 
C1    1    0.608037    0.803354    0.380217    11.00000    0.04926    0.04737 = 
         0.03450   -0.00314   -0.00837   -0.01936 
C2    1    0.418006    0.908201    0.397247    11.00000    0.05285    0.04446 = 
         0.04186    0.00004   -0.01715   -0.01811 
C3    1    0.283439    0.884728    0.509809    11.00000    0.04006    0.04628 = 
         0.04736   -0.00183   -0.01635   -0.00982 
AFIX  43 
H3    2    0.161187    0.954799    0.521795    11.00000   -1.20000 
AFIX   0 
C4    1    0.317865    0.758116    0.612001    11.00000    0.03635    0.04513 = 
         0.03377   -0.00540   -0.00781   -0.01274 
C5    1    0.496564    0.657734    0.594000    11.00000    0.03505    0.04321 = 
         0.03150   -0.00609   -0.00616   -0.01246 
C6    1    0.573755    0.523788    0.681236    11.00000    0.03768    0.04441 = 
         0.03877   -0.00424   -0.01145   -0.01154 
C8    1    0.620678    0.328089    0.859978    11.00000    0.07932    0.06683 = 
         0.05468    0.01537   -0.02618   -0.02491 
C9    1    0.792640    0.308299    0.775148    11.00000    0.05722    0.06007 = 
         0.08457   -0.00211   -0.03953   -0.00696 
C10   1    0.160474    0.740446    0.731512    11.00000    0.03304    0.04471 = 
         0.03617   -0.00495   -0.00729   -0.00557 
C11   1    0.059556    0.632967    0.750208    11.00000    0.03627    0.05329 = 
         0.04231   -0.00467   -0.00437   -0.01297 
AFIX  43 
H11   2    0.080067    0.558161    0.686897    11.00000   -1.20000 
AFIX   0 
C12   1   -0.080871    0.652542    0.880365    11.00000    0.04619    0.06376 = 
         0.05053    0.00761   -0.00648   -0.02041 
AFIX  43 
H12   2   -0.162235    0.590263    0.911165    11.00000   -1.20000 
AFIX   0 
C13   1   -0.084445    0.768318    0.953535    11.00000    0.05421    0.06752 = 
         0.03662   -0.00043   -0.00014   -0.01089 
AFIX  43 
H13   2   -0.167719    0.795381    1.039995    11.00000   -1.20000 
AFIX   0 
C14   1    0.385256    1.037367    0.286830    11.00000    0.07636    0.05765 = 
         0.05804    0.01427   -0.02795   -0.02649 
AFIX 137 
H14A  2    0.474683    1.095632    0.262865    11.00000   -1.50000 
H14B  2    0.261229    1.116003    0.317833    11.00000   -1.50000 
H14C  2    0.398903    0.983109    0.209143    11.00000   -1.50000 
PART 1 
AFIX   0 
S2    4    0.808568    0.425552    0.638549    10.70000    0.03471    0.05695 = 
         0.05524   -0.00105   -0.01377   -0.00980 
C7    1    0.476577    0.466840    0.807445    10.70000    0.04770    0.05953 = 
         0.05325    0.02454   -0.01833   -0.01557 
AFIX  43 
H7    2    0.348293    0.506182    0.851073    10.70000   -1.20000 
PART 2 
AFIX   0 
S2'   4    0.455507    0.450182    0.827521    10.30000    0.05544    0.06394 = 
         0.04417    0.01668   -0.01394   -0.02033 
C7'   1    0.757714    0.450920    0.655582    10.30000    0.04390    0.06253 = 
         0.05968    0.00307   -0.00660   -0.00416 
AFIX  43 
H7'   2    0.850282    0.476782    0.582257    10.30000   -1.20000 
PART 0 
AFIX   0 
H9    2    0.897063    0.227659    0.787846    11.00000    0.10558 
H8    2    0.587825    0.268155    0.944417    11.00000    0.08426 
HKLF 4 
  
REM  mo_d8v18917_0m_a.res in P-1 
REM R1 =  0.0390 for    2223 Fo > 4sig(Fo)  and  0.0434 for all    2475 data 
REM    191 parameters refined using     12 restraints 
  
END 
  
WGHT      0.0599      0.1998 
  
REM Instructions for potential hydrogen bonds 
HTAB C11 S2_$1 
HTAB C12 S2'_$2 
HTAB C13 O1_$3 
HTAB C7 S1 
HTAB C9 O1_$4 
  
REM Highest difference peak  0.231,  deepest hole -0.283,  1-sigma level  0.040 
Q1    1   0.0488  0.7123  0.7352  11.00000  0.05    0.23 
Q2    1   0.0057  0.6481  0.8050  11.00000  0.05    0.21 
Q3    1   0.5333  0.5942  0.6425  11.00000  0.05    0.20 
Q4    1   0.4059  0.9463  0.3590  11.00000  0.05    0.20 
Q5    1   0.1292  0.6619  0.7452  11.00000  0.05    0.19 
Q6    1   0.4202  0.7383  0.6234  11.00000  0.05    0.19 
Q7    1   0.2916  1.0345  0.2620  11.00000  0.05    0.19 
Q8    1   0.4727  0.5255  0.8455  11.00000  0.05    0.18 
Q9    1   0.3111  0.8232  0.5641  11.00000  0.05    0.18 
Q10   1   0.0078  0.8035  0.9275  11.00000  0.05    0.18 
Q11   1   0.8139  0.3401  0.7058  11.00000  0.05    0.18 
Q12   1   0.5163  0.5055  0.7444  11.00000  0.05    0.17 
Q13   1   0.2457  0.7419  0.6749  11.00000  0.05    0.17 
Q14   1   0.0443  0.6103  0.7158  11.00000  0.05    0.17 
Q15   1   0.1373  0.7769  0.7943  11.00000  0.05    0.16 
Q16   1   0.4890  0.8526  0.3849  11.00000  0.05    0.16 
Q17   1   0.3899  0.6725  0.5885  11.00000  0.05    0.16 
Q18   1   0.3691  0.9423  0.4663  11.00000  0.05    0.16 
Q19   1  -0.1129  0.7556  0.8818  11.00000  0.05    0.15 
Q20   1   0.3640  1.1411  0.3111  11.00000  0.05    0.14 
;
_shelx_res_checksum              94708
_shelx_hkl_file
; 
  -1   0   0 1166.38   42.10 
   1   0   0 1218.28   42.10 
  -2   0   0  223.88   10.30 
  -2   0   0  211.08   10.00 
  -2   0   0  227.68   10.40 
   2   0   0  230.98   10.10 
   2   0   0  244.18   10.60 
   2   0   0  214.38   10.10 
  -3   0   0  527.35   21.50 
  -3   0   0  481.95   20.90 
  -3   0   0  461.85   20.60 
   3   0   0  501.45   21.00 
   3   0   0  503.65   21.30 
   3   0   0  506.95   20.70 
  -4   0   0  914.21   36.80 
  -4   0   0  849.41   37.60 
  -4   0   0  972.10   37.70 
   4   0   0  891.81   44.80 
   4   0   0  922.11   36.80 
   4   0   0  954.80   36.70 
  -5   0   0   -2.60    1.20 
  -5   0   0   -1.00    0.90 
   5   0   0    0.90    1.30 
   5   0   0    0.90    1.70 
   5   0   0   -0.60    2.00 
  -6   0   0  358.06   20.60 
  -6   0   0  359.96   19.90 
   6   0   0  373.46   19.50 
   6   0   0  372.56   20.90 
  -7   0   0  564.84   30.10 
  -7   0   0  552.84   29.10 
   7   0   0  622.04   30.70 
   7   0   0  569.74   28.00 
  -8   0   0  208.58   16.80 
  -8   0   0  235.78   17.70 
   8   0   0  231.28   15.90 
   8   0   0  233.68   18.10 
  -9   0   0   73.29   11.60 
   9   0   0   58.09   10.70 
   8  -1   0   36.60    7.90 
  -8   1   0   23.80    6.20 
   7  -1   0   40.90    7.70 
   7  -1   0   48.30    6.10 
  -7   1   0   43.00    8.00 
  -7   1   0   34.40    6.50 
   6  -1   0  408.96   22.70 
   6  -1   0  386.16   20.20 
  -6   1   0  414.46   21.80 
  -6   1   0  413.46   22.40 
   5  -1   0  376.96   20.00 
   5  -1   0  376.26   18.10 
  -5   1   0  370.36   18.80 
  -5   1   0  361.16   19.30 
   4  -1   0  266.27   14.50 
   4  -1   0  236.68   13.00 
   4  -1   0  258.87   13.10 
  -4   1   0  291.57   14.60 
  -4   1   0  255.67   13.50 
  -4   1   0  274.07   14.40 
   3  -1   0 2567.24   91.29 
   3  -1   0 2635.04   92.49 
   3  -1   0 2465.15   90.79 
  -3   1   0 2507.85   92.09 
  -3   1   0 2617.14   91.99 
   1  -1   0  659.53   22.70 
   1  -1   0  626.14   23.50 
   1  -1   0  634.44   22.70 
  -1   1   0  633.04   22.80 
  -1   1   0  613.84   23.50 
  -1   1   0  621.34   22.90 
  -2  -1   0 1736.73   62.69 
  -2  -1   0 1751.12   62.89 
  -2  -1   0 1741.43   65.29 
   2   1   0 1735.43   62.89 
   2   1   0 1745.93   62.79 
   2   1   0 1827.42   62.89 
  -3  -1   0 3813.22  127.39 
  -3  -1   0 3515.35  126.39 
  -3  -1   0 3499.75  126.59 
   3   1   0 3389.96  126.59 
   3   1   0 3732.03  126.69 
   3   1   0 3556.04  126.79 
  -4  -1   0  352.76   17.40 
  -4  -1   0  330.87   16.60 
  -4  -1   0  336.17   16.60 
   4   1   0  344.97   17.00 
   4   1   0  340.27   16.80 
   4   1   0  364.36   16.80 
  -5  -1   0  600.04   26.70 
  -5  -1   0  553.04   26.80 
   5   1   0  617.14   26.50 
   5   1   0  566.64   26.20 
   5   1   0  546.95   26.40 
  -6  -1   0  574.64   28.60 
  -6  -1   0  596.04   28.10 
   6   1   0  560.44   28.20 
   6   1   0  583.34   27.30 
  -7  -1   0  968.50   43.60 
  -7  -1   0  945.61   42.70 
   7   1   0  852.91   40.70 
   7   1   0 1004.50   43.90 
  -8  -1   0  199.08   15.60 
  -8  -1   0  175.28   15.10 
   8   1   0  193.38   15.60 
   8   1   0  190.18   14.30 
  -9  -1   0  181.58   16.60 
   9   1   0  164.48   17.40 
   8  -2   0    2.80    5.90 
  -8   2   0   20.50    5.90 
   7  -2   0  213.38   16.70 
   7  -2   0  215.38   13.40 
  -7   2   0  215.08   15.50 
  -7   2   0  218.28   15.90 
   6  -2   0  348.27   17.60 
  -6   2   0  348.67   20.20 
  -6   2   0  334.47   19.10 
   5  -2   0   55.29    6.50 
   5  -2   0   53.59    5.40 
  -5   2   0   52.09    6.00 
   4  -2   0  389.46   19.40 
   4  -2   0  377.16   17.00 
  -4   2   0  382.36   18.10 
  -4   2   0  393.26   18.80 
  -4   2   0  369.96   19.00 
   3  -2   0 6380.36  210.88 
   3  -2   0 5933.41  207.98 
   3  -2   0 5431.46  212.88 
  -3   2   0 5852.81  208.88 
  -3   2   0 6027.00  210.68 
  -3   2   0 6397.86  210.08 
   2  -2   0 1478.95   53.89 
   2  -2   0 1441.36   51.69 
   2  -2   0 1483.45   51.89 
  -2   2   0 1414.86   53.89 
  -2   2   0 1457.95   52.39 
  -2   2   0 1487.65   52.79 
   1  -2   0 1197.18   45.10 
   1  -2   0 1235.78   44.60 
  -1   2   0 1159.18   44.60 
  -1   2   0 1271.87   43.10 
  -1   2   0 1259.77   43.20 
   0  -2   0 2733.83   90.99 
   0  -2   0 2768.22   90.69 
   0   2   0 2295.17   90.79 
  -2  -2   0 1228.98   45.50 
  -2  -2   0 1183.68   45.30 
  -2  -2   0 1299.07   45.80 
   2   2   0 1259.47   45.60 
   2   2   0 1198.58   45.00 
   2   2   0 1291.57   45.70 
  -3  -2   0 1091.59   41.30 
  -3  -2   0 1091.59   41.80 
  -3  -2   0 1108.29   41.70 
   3   2   0 1090.79   41.70 
   3   2   0 1090.79   41.40 
   3   2   0 1050.69   41.30 
  -4  -2   0 4798.02  164.88 
  -4  -2   0 4496.05  163.58 
  -4  -2   0 4479.95  164.18 
   4   2   0 4564.04  164.28 
   4   2   0 4797.92  164.28 
   4   2   0 4660.93  164.08 
  -5  -2   0 1108.59   46.20 
  -5  -2   0 1164.08   47.70 
  -5  -2   0 1221.38   47.70 
   5   2   0 1141.49   47.00 
   5   2   0 1154.28   47.10 
   5   2   0 1199.18   47.00 
  -6  -2   0  728.23   33.60 
  -6  -2   0  741.33   33.30 
   6   2   0  639.14   31.50 
   6   2   0  723.23   32.90 
   6   2   0  727.13   33.10 
  -7  -2   0    2.70    3.50 
  -7  -2   0    3.80    3.10 
   7   2   0    0.80    2.40 
   7   2   0    1.40    2.90 
  -8  -2   0  236.78   18.20 
   8   2   0  227.78   16.70 
   8   2   0  262.17   18.40 
  -9  -2   0   23.50    6.40 
   9   2   0    0.90    3.90 
   9   2   0   12.00    5.10 
   8  -3   0   41.20    8.80 
  -8   3   0   54.39    9.30 
   7  -3   0   22.30    5.70 
  -7   3   0   15.30    4.90 
   6  -3   0    0.00    2.50 
  -6   3   0   -0.30    2.10 
  -6   3   0    5.80    2.80 
   5  -3   0    7.60    3.00 
  -5   3   0   14.20    3.20 
   4  -3   0  264.07   11.70 
   4  -3   0  259.77   15.00 
  -4   3   0  251.07   13.90 
  -4   3   0  213.78   18.00 
   3  -3   0   22.30    2.10 
   3  -3   0   23.60    2.10 
   3  -3   0   22.40    3.80 
  -3   3   0   22.10    3.90 
  -3   3   0   22.70    3.00 
  -3   3   0   19.70    3.10 
   2  -3   0  834.32   32.80 
   2  -3   0  835.82   34.00 
  -2   3   0  824.02   30.80 
  -2   3   0  847.02   31.30 
  -2   3   0  794.22   33.00 
   1  -3   0 2519.65   85.99 
   1  -3   0 2331.67   86.69 
  -1   3   0 2621.94   83.79 
  -1   3   0 2396.96   83.59 
  -1   3   0 2166.28   85.49 
   0  -3   0  548.05   25.30 
   0  -3   0  623.54   23.30 
   0   3   0  617.74   21.20 
   0   3   0  581.44   23.40 
   0   3   0  609.34   21.30 
  -1  -3   0  588.44   20.90 
  -1  -3   0  607.14   21.10 
  -1  -3   0  598.34   22.00 
   1   3   0  508.35   23.40 
   1   3   0  592.44   22.60 
   1   3   0  594.34   21.90 
  -2  -3   0 2300.77   80.89 
  -2  -3   0 2411.56   80.99 
  -2  -3   0 2098.69   80.39 
   2   3   0 2151.68   80.19 
   2   3   0 2422.16   81.29 
  -3  -3   0  553.34   23.80 
  -3  -3   0  586.64   24.10 
  -3  -3   0  546.65   23.40 
   3   3   0  571.74   23.80 
   3   3   0  589.94   24.20 
   3   3   0  570.24   23.20 
  -4  -3   0   73.79    6.40 
  -4  -3   0   76.59    6.50 
  -4  -3   0   70.29    5.90 
   4   3   0   73.79    6.60 
   4   3   0   73.59    6.20 
   4   3   0   73.59    6.10 
  -5  -3   0 1251.47   50.39 
  -5  -3   0 1252.17   49.30 
  -5  -3   0 1245.48   50.39 
   5   3   0 1231.38   49.99 
   5   3   0 1222.98   49.40 
   5   3   0 1251.77   49.90 
  -6  -3   0 2293.37   98.79 
  -6  -3   0 2818.42  100.09 
   6   3   0 2543.45   98.39 
   6   3   0 2761.22   99.89 
   6   3   0 2726.43   99.19 
  -7  -3   0  670.13   38.40 
   7   3   0  641.14   31.60 
   7   3   0  641.04   31.80 
  -8  -3   0   55.69    9.50 
   8   3   0   64.09    7.90 
   8   3   0   63.99    8.40 
  -9  -3   0  244.98   19.80 
   9   3   0  231.88   18.00 
   7  -4   0  186.48   16.00 
  -7   4   0  174.78   14.90 
   6  -4   0  423.96   25.00 
  -6   4   0  427.86   22.60 
  -6   4   0  410.16   23.20 
   5  -4   0   12.90    4.40 
  -5   4   0   19.20    4.10 
  -5   4   0   21.30    4.30 
   4  -4   0   46.20    6.10 
  -4   4   0   40.20    4.40 
  -4   4   0   45.80    5.20 
   3  -4   0   65.29    6.30 
   3  -4   0   60.99    6.80 
  -3   4   0   71.69    5.60 
  -3   4   0   65.69    6.70 
  -3   4   0   62.49    5.00 
   2  -4   0  107.69    7.50 
   2  -4   0   99.39    8.10 
  -2   4   0   99.59    7.50 
  -2   4   0  103.99    5.80 
  -2   4   0  102.59    6.10 
   1  -4   0 1310.37   52.29 
   1  -4   0 1426.16   51.49 
  -1   4   0 1331.37   48.60 
  -1   4   0 1418.76   48.70 
   0  -4   0  758.92   29.50 
   0  -4   0  751.62   29.90 
   0   4   0  776.42   27.10 
   0   4   0  726.03   29.60 
   0   4   0  765.32   27.20 
  -1  -4   0 1274.57   47.40 
   1   4   0 1297.37   47.00 
   1   4   0 1342.87   47.10 
   1   4   0 1325.37   48.60 
  -2  -4   0 2825.62   97.99 
  -2  -4   0 2547.55   98.29 
  -2  -4   0 2940.61   98.19 
   2   4   0 2648.44   98.29 
   2   4   0 2933.21   98.99 
   2   4   0 2843.52   98.99 
  -3  -4   0   21.80    3.00 
  -3  -4   0   25.40    3.10 
  -3  -4   0   26.80    3.20 
   3   4   0   23.80    2.80 
   3   4   0   17.90    3.40 
   3   4   0   28.80    3.40 
  -4  -4   0  982.00   40.80 
  -4  -4   0 1069.79   41.80 
  -4  -4   0 1051.69   41.80 
   4   4   0 1058.19   40.80 
   4   4   0 1034.00   41.60 
   4   4   0 1030.70   41.80 
  -5  -4   0 2313.47   86.69 
  -5  -4   0 2324.27   87.59 
  -5  -4   0 2376.56   88.09 
   5   4   0 2378.26   86.59 
   5   4   0 2248.88   87.39 
   5   4   0 2329.47   87.29 
   6   4   0    2.40    1.90 
   6   4   0   -0.60    2.10 
   6   4   0    3.90    2.80 
  -7  -4   0  103.79   10.70 
   7   4   0  140.59   11.50 
   7   4   0  128.49   11.70 
   7   4   0  143.99   11.90 
  -8  -4   0  146.49   13.80 
   8   4   0  148.39   13.10 
   8   4   0  178.58   14.40 
  -9  -4   0  206.88   18.20 
   9   4   0  178.78   15.60 
   9   4   0  193.78   16.60 
   6  -5   0    7.90    4.50 
  -6   5   0   15.90    4.40 
  -6   5   0    4.90    3.20 
   5  -5   0  429.26   24.80 
  -5   5   0  442.86   22.20 
  -5   5   0  472.75   23.50 
   4  -5   0  270.87   16.60 
  -4   5   0  262.07   14.70 
  -4   5   0  262.07   14.10 
   3  -5   0  658.73   30.00 
  -3   5   0  662.53   27.10 
  -3   5   0  680.33   27.80 
   2  -5   0  132.09    9.90 
   2  -5   0  122.99    8.80 
  -2   5   0  118.99    6.70 
  -2   5   0  128.89    7.10 
   1  -5   0  131.19    8.80 
   1  -5   0  145.99    9.70 
  -1   5   0  130.29    6.60 
  -1   5   0  146.29    6.80 
   0  -5   0  200.78   11.00 
   0  -5   0  199.88   11.10 
   0   5   0  210.78   11.30 
   0   5   0  213.28    8.70 
   0   5   0  209.58    8.90 
  -1  -5   0 1047.50   40.30 
   1   5   0 1110.49   39.70 
   1   5   0 1070.49   41.60 
   1   5   0 1089.49   39.50 
  -2  -5   0  375.06   14.40 
  -2  -5   0  374.36   16.10 
   2   5   0  352.36   16.10 
   2   5   0  361.36   16.20 
   2   5   0  384.46   16.90 
  -3  -5   0 2975.70  110.29 
  -3  -5   0 3068.49  109.89 
  -3  -5   0 3136.39  109.89 
   3   5   0 3294.67  111.29 
   3   5   0 3012.00  109.69 
   3   5   0 3065.39  110.89 
  -4  -5   0   75.49    6.60 
  -4  -5   0   74.49    6.40 
   4   5   0   79.29    6.20 
   4   5   0   73.89    6.80 
   4   5   0   87.09    7.10 
  -5  -5   0  598.84   26.70 
  -5  -5   0  568.94   26.90 
   5   5   0  580.14   26.90 
   5   5   0  559.04   25.70 
  -6  -5   0  124.59   10.70 
   6   5   0  125.79   10.70 
   6   5   0  126.59   10.40 
   6   5   0  138.19   10.50 
  -7  -5   0   30.20    6.30 
   7   5   0   29.20    6.20 
   7   5   0   24.00    5.80 
   7   5   0   26.30    5.60 
  -8  -5   0    8.50    4.60 
   8   5   0   13.00    4.70 
   8   5   0   12.90    4.50 
  -9  -5   0   -0.70    5.10 
   9   5   0    4.60    4.30 
   9   5   0   -0.50    3.30 
   6  -6   0   -1.20    4.60 
  -6   6   0   11.00    4.40 
   5  -6   0   26.50    6.40 
  -5   6   0   26.40    5.20 
  -5   6   0   38.90    5.80 
   4  -6   0   13.30    5.90 
  -4   6   0   15.70    3.30 
  -4   6   0    8.50    2.90 
   3  -6   0   91.49    8.20 
  -3   6   0   79.19    6.40 
  -3   6   0   75.09    5.90 
   2  -6   0 1258.17   49.80 
  -2   6   0 1236.58   46.40 
  -2   6   0 1249.07   46.00 
   1  -6   0  338.17   18.40 
   1  -6   0  344.97   18.10 
  -1   6   0  353.56   14.50 
  -1   6   0  356.46   14.50 
   0  -6   0  106.49    7.80 
   0  -6   0   95.39    7.50 
   0   6   0  107.09    5.80 
   0   6   0  107.49    5.40 
  -1  -6   0 1693.13   61.29 
  -1  -6   0 1608.44   59.99 
   1   6   0 1647.14   61.49 
   1   6   0 1619.74   58.89 
   1   6   0 1605.24   58.99 
  -2  -6   0   10.40    2.20 
   2   6   0    1.90    2.00 
   2   6   0    4.90    1.60 
   2   6   0    6.10    1.70 
  -3  -6   0  238.58   12.40 
  -3  -6   0  237.68   11.00 
   3   6   0  208.48   14.50 
   3   6   0  232.58   12.70 
   3   6   0  242.18   12.70 
   4   6   0  275.67   15.00 
   4   6   0  259.37   13.90 
  -5  -6   0  221.28   13.80 
  -5  -6   0  255.97   14.50 
   5   6   0  227.08   14.60 
   5   6   0  232.58   13.10 
   5   6   0  229.38   14.30 
  -6  -6   0  674.33   31.60 
   6   6   0  623.94   31.50 
   6   6   0  665.83   31.60 
   6   6   0  684.73   30.20 
  -7  -6   0    2.50    3.00 
   7   6   0    2.40    3.00 
   7   6   0    4.40    3.00 
   7   6   0    2.10    2.40 
  -8  -6   0  201.98   16.40 
   8   6   0  212.68   15.30 
   8   6   0  219.98   16.70 
   9   6   0   28.40    6.50 
   9   6   0   15.00    6.00 
   5  -7   0    8.30    5.40 
  -5   7   0   -1.30    3.90 
  -5   7   0   18.20    4.40 
   4  -7   0   -5.30    2.50 
  -4   7   0    0.80    2.20 
  -4   7   0    4.20    2.80 
   3  -7   0   -0.40    2.10 
  -3   7   0   -1.40    1.40 
  -3   7   0    0.20    1.60 
   2  -7   0  513.65   25.70 
  -2   7   0  556.94   22.30 
  -2   7   0  558.84   22.60 
   1  -7   0 1452.45   57.99 
   1  -7   0 1454.65   59.29 
  -1   7   0 1483.75   53.79 
  -1   7   0 1560.34   54.09 
   0  -7   0   70.39    6.90 
   0  -7   0   64.19    6.60 
   0   7   0   68.59    4.40 
   0   7   0   66.19    5.50 
  -1  -7   0   63.49    5.30 
  -1  -7   0   55.99    5.50 
   1   7   0   55.39    4.50 
   1   7   0   50.39    5.40 
   1   7   0   55.39    4.40 
  -2  -7   0   53.79    5.00 
   2   7   0   52.79    4.80 
   2   7   0   45.60    5.30 
   2   7   0   55.99    5.00 
  -3  -7   0  846.02   34.40 
   3   7   0  802.82   34.70 
   3   7   0  874.41   35.60 
   3   7   0  861.41   35.00 
  -4  -7   0    0.40    1.90 
  -4  -7   0    0.20    1.70 
   4   7   0    0.20    1.70 
   4   7   0   -3.10    1.50 
   4   7   0   -0.10    1.30 
  -5  -7   0   12.00    3.00 
   5   7   0   10.00    2.80 
   5   7   0   10.10    3.00 
   5   7   0   11.40    3.10 
  -6  -7   0   63.29    6.90 
   6   7   0   34.70   10.20 
   6   7   0   53.89    9.70 
   6   7   0   63.69    6.50 
  -7  -7   0   30.30    6.20 
   7   7   0   32.10    7.30 
   7   7   0   55.49    6.70 
   7   7   0   34.40    6.70 
   8   7   0  157.68   12.60 
   8   7   0  143.49   13.30 
   9   7   0   10.40    4.60 
   9   7   0    6.90    4.20 
   4  -8   0    8.10    4.50 
  -4   8   0   -5.10    2.30 
  -4   8   0    2.30    3.20 
   3  -8   0    1.60    3.30 
  -3   8   0    7.90    2.50 
  -3   8   0    4.60    2.10 
   2  -8   0   15.60    4.20 
  -2   8   0   16.90    3.00 
  -2   8   0   17.60    2.90 
   1  -8   0   41.30    6.20 
  -1   8   0   50.59    4.00 
  -1   8   0   45.00    4.10 
   0  -8   0    7.20    2.70 
   0  -8   0    4.80    2.30 
   0   8   0    1.50    1.40 
   0   8   0    1.00    1.50 
  -1  -8   0  646.94   27.40 
  -1  -8   0  644.04   28.60 
   1   8   0  630.84   26.60 
  -2  -8   0  737.83   31.20 
  -2  -8   0  703.73   32.20 
   2   8   0  720.73   30.30 
   2   8   0  759.62   31.10 
  -3  -8   0  303.47   15.90 
   3   8   0  318.47   17.20 
   3   8   0  329.47   16.70 
   3   8   0  300.57   16.30 
  -4  -8   0   21.30    3.90 
   4   8   0   13.30    3.30 
   4   8   0   20.70    4.10 
   4   8   0   12.80    3.50 
  -5  -8   0  338.57   22.40 
   5   8   0  336.77   19.20 
   5   8   0  374.66   18.80 
   5   8   0  313.27   19.20 
  -6  -8   0   23.60    5.20 
   6   8   0   24.20    5.90 
   6   8   0   21.70    4.70 
   6   8   0   26.90    5.80 
   7   8   0   30.70    6.40 
   7   8   0   35.00    7.80 
   8   8   0  204.88   16.60 
   8   8   0  195.78   14.40 
   2  -9   0    5.60    3.40 
  -2   9   0    2.00    1.80 
  -2   9   0    8.00    2.50 
   1  -9   0   48.40    6.30 
  -1   9   0   46.40    4.30 
  -1   9   0   46.50    4.20 
   0  -9   0  190.98   12.90 
   0   9   0  196.68   10.40 
   0   9   0  198.38   10.20 
  -1  -9   0   20.30    4.30 
   1   9   0   16.10    2.90 
   1   9   0   15.80    3.20 
  -2  -9   0   41.00    5.10 
  -2  -9   0   43.50    5.70 
   2   9   0   44.90    5.00 
   2   9   0   42.40    5.80 
   2   9   0   51.29    5.30 
  -3  -9   0    7.60    3.00 
   3   9   0    6.40    2.90 
   3   9   0    7.90    2.70 
   3   9   0    8.40    3.30 
   4   9   0  468.65   23.70 
   4   9   0  458.05   24.20 
   4   9   0  507.15   24.70 
   5   9   0   14.10    4.50 
   5   9   0   11.00    4.40 
   5   9   0   16.20    7.80 
   6   9   0   -3.30    2.70 
   6   9   0   -1.20    3.20 
   6   9   0    1.00    4.30 
   7   9   0   60.19    7.90 
   7   9   0   42.00    7.90 
   0 -10   0   39.70    6.40 
   0  10   0   52.29    5.00 
  -1 -10   0    4.50    3.30 
   1  10   0    4.10    2.00 
   1  10   0   -0.50    2.00 
  -2 -10   0    8.50    3.70 
   2  10   0   16.40    3.40 
   2  10   0    7.70    3.10 
  -3 -10   0    5.20    2.70 
   3  10   0    2.60    3.30 
   3  10   0   -1.40    2.20 
   3  10   0   11.60    3.30 
   4  10   0   -0.60    2.60 
   4  10   0    6.00    3.90 
   4  10   0   -0.80    2.70 
   5  10   0  207.48   17.40 
   5  10   0  218.58   15.40 
   6  10   0   18.90    5.80 
   6  10   0   18.00    5.30 
   6  10  -1   17.20    5.30 
   6  10  -1   15.50    5.60 
   5  10  -1   39.70    6.40 
   5  10  -1   51.49    7.90 
   4  10  -1   58.99    7.60 
   4  10  -1   41.50    6.20 
   4  10  -1   26.30    8.40 
   3  10  -1   99.79    9.70 
   3  10  -1  110.49   11.80 
  -3 -10   1  135.59    9.60 
   2  10  -1    9.30    3.30 
   2  10  -1    8.80    2.90 
   1  10  -1   -1.20    2.40 
  -1 -10   1    2.80    2.70 
   0  10  -1   28.20    4.50 
   0 -10   1   38.90    5.60 
   7   9  -1   14.60    5.60 
   7   9  -1    8.10    4.10 
   6   9  -1   41.90    7.30 
   6   9  -1   52.59    6.80 
   5   9  -1   67.59    7.20 
   5   9  -1   60.29    7.50 
   5   9  -1   42.00    7.40 
   4   9  -1  187.68   12.40 
   4   9  -1  193.98   13.60 
   4   9  -1  178.28   13.30 
  -4  -9   1  168.38   11.20 
   3   9  -1    2.30    1.90 
   3   9  -1   -0.80    2.00 
   3   9  -1    1.10    2.40 
  -3  -9   1    2.80    2.30 
  -3  -9   1    2.20    1.90 
   2   9  -1  318.47   16.50 
  -2  -9   1  281.87   15.30 
  -2  -9   1  307.97   15.10 
   1   9  -1  157.08   10.10 
   1   9  -1  150.58    9.80 
  -1  -9   1  133.69   10.90 
  -1  -9   1  159.38    9.80 
   0   9  -1  373.46   17.40 
   0   9  -1  332.97   16.60 
   0  -9   1  357.66   17.70 
  -1   9  -1   20.70    3.70 
  -1   9  -1   29.30    3.90 
   1  -9   1   20.80    4.20 
  -2   9  -1   44.10    7.70 
  -2   9  -1   62.99    5.90 
   2  -9   1   52.89    6.90 
   8   8  -1   10.00    5.20 
   8   8  -1   13.50    4.90 
   7   8  -1  269.57   19.70 
   7   8  -1  282.57   19.30 
   6   8  -1  461.35   22.30 
   6   8  -1  424.16   25.00 
   6   8  -1  413.46   24.30 
  -6  -8   1  444.46   23.30 
   5   8  -1  322.67   17.00 
   5   8  -1  315.27   18.90 
   5   8  -1  308.57   19.20 
  -5  -8   1  317.47   17.00 
   4   8  -1  108.59    9.20 
   4   8  -1   98.79    9.10 
   4   8  -1  116.79    9.60 
  -4  -8   1  111.99    8.20 
  -4  -8   1  102.19    6.90 
   3   8  -1   34.90    5.60 
   3   8  -1   58.19    5.90 
   3   8  -1   50.69    5.50 
  -3  -8   1   49.70    5.20 
   2   8  -1    2.70    1.90 
   2   8  -1    5.90    2.50 
   2   8  -1    7.20    2.70 
  -2  -8   1    4.90    2.10 
  -2  -8   1    3.90    1.90 
   1   8  -1   13.90    2.90 
   1   8  -1   16.40    3.20 
  -1  -8   1   22.60    3.50 
  -1  -8   1   19.50    3.60 
   0   8  -1  202.28   11.20 
   0   8  -1  199.28   10.90 
   0  -8   1  201.98   11.90 
   0  -8   1  211.88   11.50 
  -1   8  -1  124.49    8.10 
  -1   8  -1  123.79    7.70 
   1  -8   1  126.29    9.70 
   1  -8   1  123.39    9.10 
  -2   8  -1  178.98    9.90 
  -2   8  -1  166.28    9.80 
   2  -8   1  161.78   11.50 
  -3   8  -1   19.20    3.90 
  -3   8  -1   19.40    3.90 
   3  -8   1   16.80    4.40 
  -4   8  -1  132.89   10.40 
  -4   8  -1  152.68   10.50 
   4  -8   1  122.49   11.60 
   8   7  -1   81.09   10.50 
   8   7  -1   77.39    9.20 
   7   7  -1   22.10    5.30 
   7   7  -1   26.30    5.50 
   7   7  -1    7.20    5.90 
  -7  -7   1   11.20    4.90 
   6   7  -1   26.80    5.50 
   6   7  -1   19.20    4.20 
   6   7  -1   34.70    6.30 
  -6  -7   1   30.30    5.60 
   5   7  -1  211.88   12.20 
   5   7  -1  206.28   14.10 
   5   7  -1  205.38   14.50 
  -5  -7   1  204.68   12.90 
   4   7  -1  233.58   14.80 
   4   7  -1  261.67   13.50 
  -4  -7   1  248.98   13.50 
  -4  -7   1  247.58   14.30 
   3   7  -1  178.88   10.50 
   3   7  -1  178.98   11.50 
   3   7  -1  174.98   11.40 
  -3  -7   1  169.38   10.10 
   2   7  -1    8.10    2.30 
   2   7  -1    4.30    2.00 
   2   7  -1    2.50    1.90 
  -2  -7   1    2.00    1.70 
   1   7  -1  172.28    9.60 
   1   7  -1  152.58    9.40 
   1   7  -1  177.28    9.80 
  -1  -7   1  172.18    9.00 
  -1  -7   1  145.19    9.10 
   0   7  -1  102.19    6.50 
   0   7  -1  105.39    6.90 
   0  -7   1   80.79    6.60 
   0  -7   1  100.99    7.00 
  -1   7  -1  835.52   32.70 
  -1   7  -1  857.11   33.30 
   1  -7   1  849.52   42.20 
  -2   7  -1  868.11   33.50 
  -2   7  -1  843.32   33.40 
   2  -7   1  815.62   35.50 
  -3   7  -1  200.88   11.50 
  -3   7  -1  216.98   12.20 
   3  -7   1  204.28   13.70 
  -4   7  -1    0.80    2.40 
  -4   7  -1    4.20    2.50 
   4  -7   1    1.40    3.00 
  -5   7  -1   -0.20    3.50 
  -5   7  -1    8.50    3.60 
   5  -7   1   10.50    4.90 
   9   6  -1   22.00    6.30 
   9   6  -1   21.50    6.60 
   8   6  -1   29.20    6.30 
   8   6  -1   31.90   11.10 
  -8  -6   1   31.50    6.80 
   7   6  -1    3.10    4.60 
   7   6  -1   -0.30    3.40 
   7   6  -1    3.40    2.60 
  -7  -6   1   -4.20    2.50 
   6   6  -1    9.20    3.70 
   6   6  -1    2.40    3.30 
   6   6  -1   13.60    3.70 
  -6  -6   1    4.10    3.50 
   5   6  -1    0.30    1.50 
   5   6  -1    0.20    1.80 
   5   6  -1    2.50    2.20 
  -5  -6   1   -0.60    2.10 
  -5  -6   1    1.90    2.60 
   4   6  -1  135.39    8.40 
   4   6  -1  132.69   10.00 
   4   6  -1  117.09    9.40 
  -4  -6   1  136.19    8.90 
  -4  -6   1  135.39    9.30 
   3   6  -1  564.04   24.10 
   3   6  -1  572.14   26.10 
   3   6  -1  605.74   26.30 
  -3  -6   1  584.34   24.40 
  -3  -6   1  589.34   24.50 
   2   6  -1 1073.39   41.20 
   2   6  -1 1047.40   41.70 
   2   6  -1 1070.19   41.70 
  -2  -6   1 1057.09   40.10 
  -2  -6   1 1080.79   38.50 
   1   6  -1    8.10    2.00 
   1   6  -1    7.70    2.10 
   1   6  -1   10.40    2.10 
  -1  -6   1    3.90    1.70 
  -1  -6   1    9.10    1.90 
   0   6  -1  398.66   16.70 
   0   6  -1  384.96   17.00 
   0  -6   1  394.46   17.60 
   0  -6   1  401.66   17.50 
  -1   6  -1   66.49    4.80 
  -1   6  -1   59.89    4.50 
   1  -6   1   69.49    6.30 
   1  -6   1   58.59    5.30 
  -2   6  -1  127.79    7.70 
  -2   6  -1  123.19    7.80 
   2  -6   1  129.79    9.00 
   2  -6   1  129.19   10.40 
  -3   6  -1   17.60    3.30 
  -3   6  -1   16.70    3.30 
   3  -6   1   11.70    3.50 
  -4   6  -1  163.48   10.30 
  -4   6  -1  158.98   10.90 
   4  -6   1  140.79   11.50 
  -5   6  -1   55.99    6.80 
  -5   6  -1   49.10    6.50 
   5  -6   1   48.90    8.00 
  -6   6  -1   62.19    8.10 
   6  -6   1   64.89   10.20 
   9   5  -1    5.80    4.90 
   9   5  -1   15.50    6.10 
  -9  -5   1   22.10    7.30 
   8   5  -1  199.78   15.00 
   8   5  -1  164.18   14.80 
  -8  -5   1  185.48   15.80 
   7   5  -1  810.72   36.60 
   7   5  -1  776.82   38.40 
   7   5  -1  791.72   37.80 
  -7  -5   1  758.02   38.10 
   6   5  -1    5.90    3.30 
   6   5  -1    4.70    2.40 
   6   5  -1    0.40    1.50 
  -6  -5   1    0.30    1.80 
   5   5  -1    1.00    2.00 
   5   5  -1    5.20    2.40 
   5   5  -1    0.30    1.80 
  -5  -5   1    1.20    1.80 
  -5  -5   1   -0.40    1.50 
   4   5  -1  348.47   18.80 
   4   5  -1  367.06   17.10 
   4   5  -1  382.16   19.10 
  -4  -5   1  368.56   18.50 
  -4  -5   1  356.96   17.50 
   3   5  -1  155.78    8.40 
   3   5  -1  157.68   10.00 
  -3  -5   1  152.78    8.80 
  -3  -5   1  155.78    9.40 
  -3  -5   1  131.09   13.50 
   2   5  -1  164.88    8.60 
   2   5  -1  160.88    9.40 
   2   5  -1  152.38    9.10 
  -2  -5   1  151.78    8.20 
  -2  -5   1  162.18    8.40 
  -2  -5   1  164.08    8.20 
   1   5  -1 5705.73  185.88 
   1   5  -1 5099.69  185.58 
   1   5  -1 5187.38  185.38 
  -1  -5   1 5320.27  184.48 
   0   5  -1  328.77   14.00 
   0   5  -1  340.47   14.50 
   0  -5   1  329.47   14.60 
   0  -5   1  337.87   14.80 
  -1   5  -1   17.40    2.30 
  -1   5  -1   20.50    2.50 
   1  -5   1   18.80    3.50 
   1  -5   1   22.90    2.90 
  -2   5  -1  696.73   26.80 
  -2   5  -1  684.03   27.00 
   2  -5   1  646.34   29.60 
   2  -5   1  663.53   28.20 
  -3   5  -1  960.00   41.50 
  -3   5  -1 1075.49   40.20 
  -3   5  -1 1027.80   39.40 
   3  -5   1  978.70   43.20 
   3  -5   1 1031.30   41.70 
  -4   5  -1   78.89    6.70 
  -4   5  -1   77.59    7.00 
   4  -5   1   79.09    7.90 
  -5   5  -1   60.29    6.30 
  -5   5  -1   53.29    6.40 
  -6   5  -1   38.00    6.20 
  -6   5  -1   35.20    6.30 
   6  -5   1   35.00    7.30 
   9   4  -1   82.09   10.60 
   9   4  -1   74.29    9.90 
  -9  -4   1   72.19   11.90 
   8   4  -1   20.10    5.60 
   8   4  -1   12.40    4.30 
  -8  -4   1   13.30    4.90 
   7   4  -1    2.40    2.70 
   7   4  -1   -1.00    2.20 
  -7  -4   1    3.30    3.00 
   6   4  -1 1137.49   46.70 
   6   4  -1 1103.59   51.99 
   6   4  -1 1131.89   45.90 
  -6  -4   1  947.81   46.00 
   5   4  -1  133.99   10.10 
   5   4  -1  121.49    9.10 
   5   4  -1  108.89    9.60 
  -5  -4   1  126.89    9.00 
  -5  -4   1  127.49   10.10 
   4   4  -1 2865.51  105.09 
   4   4  -1 2816.92  118.09 
  -4  -4   1 2988.60  105.49 
  -4  -4   1 2961.70  107.09 
  -4  -4   1 2963.60  106.99 
   3   4  -1  150.88    8.30 
   3   4  -1  140.09    9.50 
   3   4  -1  158.78    9.70 
  -3  -4   1  152.38    8.60 
  -3  -4   1  144.59    9.10 
  -3  -4   1  165.28    9.70 
   2   4  -1  124.99    7.70 
   2   4  -1  111.39    6.20 
  -2  -4   1  130.49    7.30 
  -2  -4   1  127.29    7.30 
  -2  -4   1  113.39    6.50 
   1   4  -1  603.84   23.50 
   1   4  -1  597.04   23.10 
  -1  -4   1  589.94   22.40 
  -1  -4   1  593.24   22.20 
  -1  -4   1  587.64   22.30 
   0   4  -1 1214.88   44.30 
   0  -4   1 1192.38   45.40 
   0  -4   1 1285.17   44.90 
  -1   4  -1 1904.51   70.09 
  -1   4  -1 1990.90   69.69 
   1  -4   1 1992.50   71.59 
   1  -4   1 1953.20   70.39 
  -2   4  -1  342.67   16.60 
  -2   4  -1  350.66   15.30 
  -2   4  -1  386.56   15.80 
   2  -4   1  346.27   16.40 
   2  -4   1  366.36   17.70 
  -3   4  -1 1392.76   51.19 
  -3   4  -1 1349.47   53.29 
  -3   4  -1 1414.56   51.89 
   3  -4   1 1346.17   52.89 
   3  -4   1 1346.17   54.39 
  -4   4  -1  220.08   12.70 
  -4   4  -1  195.28   11.70 
   4  -4   1  230.78   13.90 
  -5   4  -1    4.00    2.10 
  -5   4  -1   14.00    3.40 
   5  -4   1    5.70    2.80 
  -6   4  -1    3.60    3.10 
  -6   4  -1   -0.30    3.50 
   6  -4   1   -2.60    2.50 
  -7   4  -1    9.30    3.90 
   7  -4   1    4.00    4.60 
   9   3  -1    2.40    3.70 
   9   3  -1    2.20    4.90 
  -9  -3   1   -0.70    5.40 
   8   3  -1   58.99    9.40 
   8   3  -1   79.69    9.50 
  -8  -3   1   79.79   10.80 
   7   3  -1   36.20    6.60 
   7   3  -1   31.00    9.20 
  -7  -3   1   32.30    6.80 
   6   3  -1 1277.07   56.49 
   6   3  -1 1407.96   57.89 
   6   3  -1 1470.95   57.49 
  -6  -3   1 1576.14   58.79 
  -6  -3   1 1276.67   57.39 
   5   3  -1  243.08   15.00 
   5   3  -1  249.38   14.50 
   5   3  -1  266.27   15.10 
  -5  -3   1  250.77   15.20 
  -5  -3   1  236.78   13.80 
  -5  -3   1  238.98   14.80 
   4   3  -1 2661.83   95.09 
   4   3  -1 2495.05   94.99 
   4   3  -1 2549.34   94.09 
  -4  -3   1 2504.25   93.59 
  -4  -3   1 2615.74   95.49 
  -4  -3   1 2676.33   95.29 
   3   3  -1 4902.61  167.08 
   3   3  -1 4686.63  166.88 
   3   3  -1 4556.04  165.38 
  -3  -3   1 4631.04  165.38 
  -3  -3   1 4942.81  166.98 
  -3  -3   1 4636.44  166.58 
   2   3  -1   57.29    4.80 
   2   3  -1   58.79    3.90 
   2   3  -1   61.79    4.80 
  -2  -3   1   65.19    4.80 
  -2  -3   1   61.69    4.70 
  -2  -3   1   63.09    4.20 
   1   3  -1 1446.76   49.30 
   1   3  -1 1196.28   48.00 
   1   3  -1 1379.96   49.20 
  -1  -3   1 1346.87   47.70 
  -1  -3   1 1377.36   48.60 
  -1  -3   1 1357.76   48.50 
   0   3  -1  523.05   20.50 
   0   3  -1  538.75   20.30 
   0   3  -1  514.75   20.20 
   0  -3   1  549.85   19.40 
   0  -3   1  540.15   20.10 
   0  -3   1  553.84   20.40 
  -1   3  -1  160.58    7.50 
  -1   3  -1  146.99    7.70 
  -1   3  -1  159.68    7.40 
   1  -3   1  163.98    7.80 
   1  -3   1  155.48    8.30 
  -2   3  -1  638.44   24.70 
  -2   3  -1  626.04   24.40 
  -2   3  -1  627.14   25.50 
   2  -3   1  648.14   25.50 
   2  -3   1  617.44   22.80 
   2  -3   1  620.44   22.90 
  -3   3  -1   86.79    7.00 
  -3   3  -1   91.09    6.50 
  -3   3  -1   99.09    6.30 
   3  -3   1   99.19    7.10 
   3  -3   1   89.99    5.20 
   3  -3   1   93.69    5.40 
  -4   3  -1  863.11   41.20 
  -4   3  -1  936.11   36.80 
  -4   3  -1  867.01   35.60 
   4  -3   1  887.61   34.00 
   4  -3   1  884.11   37.40 
  -5   3  -1   22.40    4.10 
  -5   3  -1   19.90    4.00 
   5  -3   1   17.30    4.20 
   5  -3   1   23.90    3.30 
  -6   3  -1  227.08   16.70 
  -6   3  -1  276.77   17.00 
   6  -3   1  271.07   13.80 
   6  -3   1  266.87   17.50 
  -7   3  -1  193.98   15.00 
  -7   3  -1  188.58   13.90 
   7  -3   1  151.28   14.50 
  -8   3  -1   93.39   11.30 
   8  -3   1   89.69   12.00 
   9   2  -1   51.99    9.20 
  -9  -2   1   56.49   10.30 
   8   2  -1    3.00    3.60 
   8   2  -1   -5.40    2.70 
  -8  -2   1    7.60    3.40 
   7   2  -1   53.49    8.10 
   7   2  -1   61.59    8.20 
  -7  -2   1   52.29    8.10 
  -7  -2   1   52.59    8.50 
   6   2  -1 1131.39   46.20 
   6   2  -1  936.11   44.00 
  -6  -2   1 1054.79   45.80 
  -6  -2   1 1127.89   46.90 
   5   2  -1   59.89    6.30 
   5   2  -1   60.29    8.10 
   5   2  -1   60.39    6.60 
  -5  -2   1   55.79    6.40 
  -5  -2   1   63.39    6.80 
   4   2  -1  407.96   19.40 
   4   2  -1  397.26   19.80 
   4   2  -1  406.16   19.60 
  -4  -2   1  433.96   20.40 
  -4  -2   1  415.26   19.10 
  -4  -2   1  414.76   20.10 
   3   2  -1  406.96   18.00 
   3   2  -1  385.36   18.00 
   3   2  -1  376.06   17.30 
  -3  -2   1  375.86   17.00 
  -3  -2   1  396.66   18.10 
  -3  -2   1  405.96   18.20 
   2   2  -1 1702.73   61.09 
   2   2  -1 1676.03   62.09 
   2   2  -1 1736.63   62.19 
  -2  -2   1 1714.63   62.09 
  -2  -2   1 1699.13   61.99 
   1   2  -1  774.02   29.10 
   1   2  -1  831.72   30.60 
  -1  -2   1  799.92   29.20 
  -1  -2   1  827.62   30.40 
  -1  -2   1  843.92   30.40 
   0   2  -1  339.57   13.20 
   0   2  -1  336.97   13.40 
   0   2  -1  340.87   12.70 
   0  -2   1  342.27   12.70 
   0  -2   1  349.67   13.20 
   0  -2   1  340.37   12.60 
   0  -2   1  343.67   13.10 
  -2   2  -1 5258.37  176.28 
  -2   2  -1 4612.34  176.58 
   2  -2   1 5209.58  176.98 
   2  -2   1 5249.57  175.78 
  -3   2  -1   64.39    5.20 
  -3   2  -1   65.69    5.00 
  -3   2  -1   63.99    5.20 
   3  -2   1   56.99    4.40 
   3  -2   1   68.89    4.70 
   3  -2   1   67.89    5.50 
  -4   2  -1   26.80    4.40 
  -4   2  -1   33.20    4.10 
   4  -2   1   37.40    4.60 
   4  -2   1   30.50    3.50 
  -5   2  -1   -0.10    1.20 
  -5   2  -1    4.30    1.90 
   5  -2   1    4.50    1.70 
   5  -2   1    2.80    2.00 
  -6   2  -1   27.20    4.90 
  -6   2  -1   21.50    4.80 
   6  -2   1   27.40    5.30 
   6  -2   1   29.40    4.70 
  -7   2  -1  124.69   10.90 
  -7   2  -1  130.99   11.80 
   7  -2   1  128.19   11.90 
   7  -2   1  121.79    9.90 
  -8   2  -1    0.90    2.80 
   8  -2   1   -2.00    3.80 
   9   1  -1  181.78   17.30 
  -9  -1   1  170.98   17.10 
   8   1  -1  105.29   12.10 
   8   1  -1  110.09   10.50 
  -8  -1   1  114.89   12.80 
  -8  -1   1  100.49   11.80 
   7   1  -1  631.14   32.70 
   7   1  -1  742.73   35.70 
  -7  -1   1  722.73   35.80 
  -7  -1   1  775.62   35.80 
   6   1  -1  112.69   10.10 
   6   1  -1  101.69    9.10 
  -6  -1   1  112.69   10.30 
  -6  -1   1  111.39    9.70 
   5   1  -1 1715.83   65.49 
   5   1  -1 1688.33   65.19 
   5   1  -1 1731.73   64.59 
  -5  -1   1 1613.24   68.19 
  -5  -1   1 1613.14   64.99 
   4   1  -1  357.96   17.50 
   4   1  -1  344.67   17.70 
   4   1  -1  347.17   23.70 
  -4  -1   1  363.96   17.90 
  -4  -1   1  371.46   18.20 
  -4  -1   1  355.26   18.20 
   3   1  -1 1279.27   47.40 
   3   1  -1 1238.08   47.50 
   3   1  -1 1236.58   47.20 
  -3  -1   1 1228.78   46.80 
  -3  -1   1 1255.27   47.70 
   2   1  -1  715.33   27.60 
   2   1  -1  684.03   26.90 
   2   1  -1  700.93   27.50 
  -2  -1   1  679.03   26.70 
  -2  -1   1  731.13   27.70 
  -2  -1   1  716.03   27.70 
   0   1  -1  515.05   18.30 
   0  -1   1  494.65   18.20 
   0  -1   1  475.25   18.30 
  -3   1  -1 3459.85  118.59 
  -3   1  -1 3315.67  118.09 
   3  -1   1 3002.60  117.09 
   3  -1   1 3417.96  117.79 
   3  -1   1 3477.35  118.69 
  -4   1  -1  969.40   38.90 
  -4   1  -1  978.20   40.80 
  -4   1  -1  961.90   38.40 
   4  -1   1 1012.30   38.20 
   4  -1   1  940.01   38.10 
  -5   1  -1  660.13   29.10 
  -5   1  -1  612.44   27.90 
   5  -1   1  597.74   27.00 
   5  -1   1  652.23   29.20 
  -6   1  -1    9.30    3.60 
  -6   1  -1   14.10    4.00 
   6  -1   1   10.90    3.60 
   6  -1   1   12.90    3.20 
  -7   1  -1   24.80    5.60 
  -7   1  -1   21.80    5.70 
   7  -1   1   36.50    5.80 
   7  -1   1   22.90    6.00 
  -8   1  -1   77.09   10.50 
  -8   1  -1   77.89   11.80 
   8  -1   1   70.89    9.80 
  -9   1  -1  326.97   23.90 
   9  -1   1  343.17   24.90 
   9   0  -1   10.10    5.80 
  -9   0   1   25.90    7.70 
   8   0  -1    2.50    3.80 
  -8   0   1    5.60    4.00 
  -8   0   1    1.90    8.60 
   7   0  -1   29.90    5.40 
   7   0  -1   40.60    7.30 
  -7   0   1   33.70    7.00 
  -7   0   1   38.00    6.90 
   6   0  -1   28.10    5.00 
   6   0  -1   32.60    6.20 
  -6   0   1   31.50    6.00 
  -6   0   1   32.30    5.80 
   5   0  -1 2104.89   79.49 
   5   0  -1 2167.38   81.39 
  -5   0   1 2106.99   81.09 
   4   0  -1 3368.56  122.19 
   4   0  -1 3410.46  121.69 
  -4   0   1 3470.95  122.79 
  -4   0   1 3338.37  122.19 
  -4   0   1 3395.96  122.29 
   3   0  -1  721.93   29.00 
   3   0  -1  716.13   29.50 
   3   0  -1  704.53   29.30 
  -3   0   1  748.53   29.50 
  -3   0   1  743.63   29.70 
  -3   0   1  730.03   29.40 
   2   0  -1 1243.68   45.70 
   2   0  -1 1263.57   45.70 
   2   0  -1 1210.78   45.30 
  -2   0   1 1226.58   45.70 
  -2   0   1 1242.68   45.60 
  -2   0   1 1248.08   45.70 
  -3   0  -1    5.10    1.50 
  -3   0  -1    5.10    1.50 
  -3   0  -1    3.90    1.50 
   3   0   1    5.50    1.40 
   3   0   1    6.80    1.80 
   3   0   1    5.30    1.70 
  -4   0  -1 2427.06   85.29 
  -4   0  -1 2312.07   84.29 
  -4   0  -1 2241.28   84.29 
   4   0   1 2307.37   84.29 
   4   0   1 2304.47   84.99 
   4   0   1 2272.87   83.89 
  -5   0  -1  212.78   15.10 
  -5   0  -1  231.68   14.10 
   5   0   1  256.87   13.40 
   5   0   1  218.58   13.10 
   5   0   1  230.18   13.80 
  -6   0  -1 2008.70   80.19 
  -6   0  -1 2205.88   82.19 
   6   0   1 2139.39   81.89 
   6   0   1 2080.29   79.59 
  -7   0  -1   25.70    5.70 
  -7   0  -1   34.00    6.50 
   7   0   1   31.50    6.40 
   7   0   1   41.90    6.60 
  -8   0  -1    3.30    4.00 
  -8   0  -1    8.70    4.30 
   8   0   1    5.10    3.30 
   8   0   1    4.70    3.60 
  -9   0  -1  214.78   18.40 
   9   0   1  288.37   21.00 
   8  -1  -1   36.60    7.80 
  -8   1   1   36.00    7.80 
   7  -1  -1    3.20    3.40 
   7  -1  -1    1.60    3.20 
  -7   1   1   10.80    3.80 
  -7   1   1    9.80    4.40 
   6  -1  -1  304.37   16.40 
   6  -1  -1  279.97   19.60 
  -6   1   1  293.87   17.60 
  -6   1   1  278.67   17.90 
   5  -1  -1 1869.91   72.59 
   5  -1  -1 1884.01   69.99 
  -5   1   1 1852.41   71.89 
  -5   1   1 1830.72   71.09 
   4  -1  -1  209.98   11.40 
   4  -1  -1  199.18   11.60 
   4  -1  -1  206.88   12.60 
  -4   1   1  200.08   12.40 
  -4   1   1  218.58   12.50 
  -4   1   1  217.28   12.10 
   3  -1  -1  778.02   30.40 
   3  -1  -1  762.92   30.70 
   3  -1  -1  815.02   32.20 
  -3   1   1  753.42   31.80 
  -3   1   1  795.42   31.40 
   2  -1  -1 3917.91  141.09 
   2  -1  -1 4195.98  142.59 
   2  -1  -1 4030.70  141.39 
  -2   1   1 4098.79  141.79 
  -2   1   1 4047.70  142.59 
   0  -1  -1   48.50    3.30 
   0   1   1   51.09    2.60 
   0   1   1   45.60    3.20 
   0   1   1   58.99    2.40 
  -1  -1  -1  108.79    4.90 
  -1  -1  -1  102.79    4.70 
   1   1   1  106.59    5.00 
   1   1   1  102.79    5.30 
  -2  -1  -1 2861.41  100.29 
  -2  -1  -1 2744.43  100.69 
  -2  -1  -1 2952.00  100.69 
   2   1   1 2889.01  100.59 
  -3  -1  -1  535.85   22.20 
  -3  -1  -1  529.85   22.60 
  -3  -1  -1  538.65   22.40 
   3   1   1  549.05   22.10 
   3   1   1  512.05   22.20 
   3   1   1  567.84   22.60 
  -4  -1  -1  170.58   10.20 
  -4  -1  -1  169.68   10.20 
  -4  -1  -1  189.28   11.10 
   4   1   1  187.48   10.40 
   4   1   1  171.28   10.60 
   4   1   1  182.28   10.60 
  -5  -1  -1 1443.46   57.39 
  -5  -1  -1 1484.55   57.59 
  -5  -1  -1 1490.05   58.49 
   5   1   1 1505.75   57.39 
   5   1   1 1466.75   57.59 
   5   1   1 1522.05   58.49 
  -6  -1  -1 1374.76   55.79 
  -6  -1  -1 1376.16   54.89 
   6   1   1 1367.76   55.49 
   6   1   1 1292.27   53.79 
  -7  -1  -1  842.32   38.10 
  -7  -1  -1  826.52   36.80 
   7   1   1  677.53   34.60 
   7   1   1  806.52   37.60 
  -8  -1  -1    3.90    4.10 
  -8  -1  -1   -2.40    2.80 
   8   1   1    3.90    3.40 
   8   1   1    5.20    3.40 
  -9  -1  -1    4.00    3.80 
   9   1   1   -2.20    3.60 
   8  -2  -1  549.54   32.50 
  -8   2   1  526.65   40.60 
   7  -2  -1   18.70    5.70 
   7  -2  -1   27.80    5.30 
  -7   2   1   14.00    4.90 
  -7   2   1   13.30    5.00 
   6  -2  -1   37.40    7.00 
   6  -2  -1   51.19    5.80 
  -6   2   1   54.39    6.90 
  -6   2   1   55.09    6.90 
   5  -2  -1  715.93   33.30 
   5  -2  -1  716.23   29.90 
  -5   2   1  728.43   32.40 
   4  -2  -1    3.90    1.90 
   4  -2  -1    6.70    2.70 
  -4   2   1    5.00    1.80 
  -4   2   1    8.70    2.80 
   3  -2  -1  317.67   14.00 
   3  -2  -1  322.17   16.20 
   3  -2  -1  291.57   17.40 
  -3   2   1  327.07   15.10 
  -3   2   1  318.97   16.20 
  -3   2   1  297.57   14.40 
   2  -2  -1 4077.89  138.99 
   2  -2  -1 3889.51  135.99 
  -2   2   1 4133.19  137.29 
  -2   2   1 3726.13  136.89 
  -2   2   1 3804.22  138.79 
   1  -2  -1    0.90    1.00 
   1  -2  -1    3.70    1.10 
  -1   2   1    2.00    0.90 
  -1   2   1    2.00    0.60 
  -1   2   1    1.20    0.50 
   0  -2  -1 1803.82   70.29 
   0  -2  -1 2028.10   69.49 
   0   2   1 2019.90   69.89 
  -3  -2  -1 4404.56  149.49 
  -3  -2  -1 4224.68  149.69 
  -3  -2  -1 4152.68  149.49 
   3   2   1 4248.77  149.59 
   3   2   1 4071.89  149.09 
   3   2   1 4434.56  149.49 
  -4  -2  -1 1438.06   54.89 
  -4  -2  -1 1435.86   54.79 
  -4  -2  -1 1502.75   55.59 
   4   2   1 1490.15   55.09 
   4   2   1 1426.36   54.79 
   4   2   1 1374.76   54.39 
  -5  -2  -1   89.39    7.40 
  -5  -2  -1   80.79    7.40 
  -5  -2  -1   79.69    7.20 
   5   2   1   75.39    6.90 
   5   2   1   89.69    7.60 
   5   2   1   85.19    7.10 
  -6  -2  -1   27.50    4.90 
  -6  -2  -1   36.40    6.30 
   6   2   1   19.80    4.80 
   6   2   1   28.50    5.20 
   6   2   1   22.90    4.70 
  -7  -2  -1  299.37   19.10 
  -7  -2  -1  295.97   18.40 
   7   2   1  289.97   17.80 
   7   2   1  289.67   18.60 
  -8  -2  -1   18.30    5.20 
   8   2   1    5.80    3.30 
   8   2   1   16.90    5.20 
  -9  -2  -1   55.89    9.60 
   9   2   1   49.60    9.20 
   9   2   1   62.29    8.40 
   7  -3  -1   99.99   11.90 
  -7   3   1  111.59   11.20 
   6  -3  -1  297.27   14.70 
   6  -3  -1  310.97   20.20 
  -6   3   1  269.87   18.10 
  -6   3   1  330.77   18.50 
   5  -3  -1  633.24   25.90 
   5  -3  -1  636.14   31.10 
  -5   3   1  651.43   29.30 
  -5   3   1  647.74   29.90 
   4  -3  -1   59.59    6.60 
   4  -3  -1   61.79    4.40 
  -4   3   1   63.29    6.10 
  -4   3   1   65.79    6.10 
   3  -3  -1  606.34   28.70 
   3  -3  -1  621.94   27.40 
   3  -3  -1  618.04   22.60 
   3  -3  -1  586.44   22.70 
  -3   3   1  639.94   25.70 
  -3   3   1  604.84   25.10 
  -3   3   1  620.64   27.80 
   2  -3  -1 3306.87  115.79 
   2  -3  -1 3210.08  116.99 
  -2   3   1 3241.38  113.19 
  -2   3   1 3128.59  115.69 
  -2   3   1 3217.28  112.69 
   1  -3  -1 2581.34   90.79 
   1  -3  -1 2421.76   91.59 
  -1   3   1 2598.44   87.49 
  -1   3   1 2596.84   87.29 
  -1   3   1 2412.36   90.49 
   0  -3  -1  264.57   12.10 
   0  -3  -1  242.28   12.30 
   0   3   1  257.87   12.40 
  -2  -3  -1 1117.79   40.20 
  -2  -3  -1 1067.09   40.80 
  -2  -3  -1 1093.29   40.10 
   2   3   1 1111.39   40.70 
   2   3   1 1072.89   40.60 
   2   3   1 1174.18   40.60 
  -3  -3  -1  785.32   31.60 
  -3  -3  -1  814.72   31.60 
  -3  -3  -1  826.82   31.60 
   3   3   1  779.52   31.10 
   3   3   1  803.92   31.70 
  -4  -3  -1 2032.40   80.39 
  -4  -3  -1 2134.19   77.39 
  -4  -3  -1 2039.00   77.09 
   4   3   1 2047.70   77.19 
   4   3   1 2143.59   76.89 
   4   3   1 2154.18   77.19 
  -5  -3  -1  401.16   20.10 
  -5  -3  -1  395.96   20.20 
  -5  -3  -1  422.56   20.90 
   5   3   1  393.06   20.10 
   5   3   1  412.66   20.00 
   5   3   1  413.86   20.00 
  -6  -3  -1   84.29    8.30 
   6   3   1   74.69    7.50 
   6   3   1   74.19    7.50 
   6   3   1   87.69    8.30 
  -7  -3  -1 1039.10   46.80 
   7   3   1 1139.09   46.70 
   7   3   1  981.80   44.80 
  -8  -3  -1  130.49   12.40 
   8   3   1  137.29   12.30 
   8   3   1  116.89   11.20 
  -9  -3  -1    6.00    5.50 
   9   3   1   10.30    4.80 
   9   3   1   12.90    5.10 
 -10  -3  -1  142.79   16.20 
  10   3   1  147.59   15.00 
   7  -4  -1   36.70    8.50 
  -7   4   1   50.69    8.80 
   6  -4  -1   16.20    5.50 
  -6   4   1   14.40    4.60 
  -6   4   1   21.40    5.20 
   5  -4  -1  419.16   24.00 
  -5   4   1  413.06   21.20 
  -5   4   1  427.96   22.10 
   4  -4  -1  599.84   28.40 
  -4   4   1  583.24   26.10 
  -4   4   1  557.54   25.30 
   3  -4  -1 1106.49   45.50 
  -3   4   1 1115.49   42.40 
  -3   4   1 1120.99   42.90 
   2  -4  -1  345.87   17.20 
   2  -4  -1  311.67   17.90 
  -2   4   1  338.67   14.10 
  -2   4   1  331.77   14.40 
  -2   4   1  345.97   17.30 
   1  -4  -1 1089.99   45.10 
   1  -4  -1 1152.68   44.20 
  -1   4   1 1154.28   39.90 
  -1   4   1 1133.29   40.00 
   0  -4  -1 1570.44   56.39 
   0  -4  -1 1459.75   56.59 
   0   4   1 1485.25   56.49 
  -1  -4  -1  105.49    6.50 
   1   4   1  111.39    5.10 
   1   4   1  116.39    7.50 
   1   4   1  110.69    5.00 
  -2  -4  -1  429.26   16.40 
  -2  -4  -1  417.86   17.90 
  -2  -4  -1  422.26   16.30 
   2   4   1  424.06   17.60 
   2   4   1  435.36   17.60 
   2   4   1  452.25   18.60 
  -3  -4  -1 1241.08   46.70 
  -3  -4  -1 1206.78   47.20 
  -3  -4  -1 1226.28   46.70 
   3   4   1 1324.27   47.40 
   3   4   1 1268.17   47.00 
  -4  -4  -1 1840.12   66.99 
  -4  -4  -1 1753.22   66.69 
  -4  -4  -1 1767.32   66.99 
   4   4   1 1771.32   66.99 
   4   4   1 1863.91   66.89 
   4   4   1 1729.13   66.09 
  -5  -4  -1 1588.44   71.79 
  -5  -4  -1 1549.34   60.99 
  -5  -4  -1 1587.74   61.19 
   5   4   1 1512.85   60.99 
   5   4   1 1630.14   60.69 
   5   4   1 1583.74   60.99 
  -6  -4  -1   76.39    8.20 
   6   4   1   85.69    8.20 
   6   4   1   90.89    8.30 
   6   4   1  100.59    8.40 
  -7  -4  -1  932.21   46.10 
   7   4   1 1155.48   46.90 
   7   4   1 1105.99   46.20 
   7   4   1 1059.69   46.50 
  -8  -4  -1    1.40    2.70 
   8   4   1    2.20    2.80 
   8   4   1   -2.00    2.30 
  -9  -4  -1   47.60    9.10 
   9   4   1   39.40    7.60 
   9   4   1   50.29    9.00 
 -10  -4  -1    5.60    6.70 
  10   4   1    3.70    7.30 
  10   4   1    5.60    4.30 
   6  -5  -1   -5.10    3.60 
  -6   5   1    0.90    2.80 
  -6   5   1   -8.30    4.90 
   5  -5  -1  308.97   20.40 
  -5   5   1  314.67   18.40 
  -5   5   1  322.47   17.90 
   4  -5  -1   93.39    8.90 
  -4   5   1   83.79    7.10 
  -4   5   1   92.09    7.70 
   3  -5  -1   48.40    6.20 
  -3   5   1   45.70    4.40 
  -3   5   1   42.90    4.50 
   2  -5  -1 2166.08   80.19 
   2  -5  -1 1861.81   85.99 
  -2   5   1 2202.88   75.39 
  -2   5   1 2223.98   75.89 
   1  -5  -1  571.84   37.70 
   1  -5  -1  670.13   31.70 
  -1   5   1  691.63   24.60 
  -1   5   1  710.73   24.40 
   0  -5  -1  676.43   28.10 
   0  -5  -1  670.63   28.40 
   0   5   1  624.34   28.00 
  -1  -5  -1   90.29    6.30 
   1   5   1   91.59    4.60 
   1   5   1   89.49    4.60 
   1   5   1   94.89    7.20 
  -2  -5  -1   18.00    2.90 
   2   5   1   18.60    3.50 
   2   5   1   18.80    2.20 
   2   5   1   18.00    2.30 
  -3  -5  -1  834.82   34.20 
  -3  -5  -1  870.91   32.80 
  -3  -5  -1  857.11   32.70 
   3   5   1  874.81   34.10 
   3   5   1  839.92   33.80 
   3   5   1  892.91   34.30 
  -4  -5  -1   23.70    5.00 
  -4  -5  -1   33.90    4.00 
   4   5   1   27.80    3.70 
   4   5   1   28.60    3.60 
  -5  -5  -1   79.39    7.50 
  -5  -5  -1   99.59    8.00 
   5   5   1   77.19    7.10 
   5   5   1   77.29    7.30 
   5   5   1   92.99    7.40 
  -6  -5  -1  302.67   17.90 
   6   5   1  299.37   17.70 
   6   5   1  286.37   17.10 
   6   5   1  299.17   16.80 
  -7  -5  -1  595.54   31.40 
   7   5   1  704.03   32.60 
   7   5   1  647.64   31.10 
   7   5   1  640.64   31.30 
  -8  -5  -1   85.79   10.10 
   8   5   1   64.29    8.70 
   8   5   1   78.69    8.80 
   9   5   1   25.00    6.60 
   9   5   1   12.70    5.70 
   5  -6  -1   16.00    5.20 
  -5   6   1   12.10    4.30 
  -5   6   1   13.70    4.20 
  -4   6   1   14.50    3.60 
  -4   6   1   13.80    3.50 
   3  -6  -1  200.58   14.00 
  -3   6   1  200.18   11.00 
  -3   6   1  209.78   11.40 
   2  -6  -1   51.79    6.40 
  -2   6   1   52.79    4.20 
  -2   6   1   50.59    4.70 
   1  -6  -1  243.98   14.70 
   1  -6  -1  259.67   15.90 
  -1   6   1  262.27   10.50 
  -1   6   1  260.27   10.60 
   0  -6  -1   70.19    6.70 
   0  -6  -1   60.09    7.60 
   0   6   1   74.19    3.40 
  -1  -6  -1 1078.69   42.90 
  -1  -6  -1 1034.10   41.60 
   1   6   1 1072.29   38.60 
   1   6   1 1079.69   43.20 
   1   6   1 1074.49   38.60 
  -2  -6  -1  331.97   15.80 
   2   6   1  346.07   15.00 
   2   6   1  325.57   14.80 
   2   6   1  363.56   17.90 
  -3  -6  -1  369.46   14.30 
  -3  -6  -1  368.06   14.50 
  -3  -6  -1  356.16   17.40 
   3   6   1  374.26   18.30 
   3   6   1  383.36   17.20 
   3   6   1  360.26   17.00 
  -4  -6  -1  789.42   33.90 
  -4  -6  -1  798.42   32.10 
   4   6   1  821.02   33.90 
   4   6   1  808.82   34.00 
   4   6   1  832.12   33.60 
  -5  -6  -1   53.19    5.80 
   5   6   1   58.09    6.60 
   5   6   1   54.29    6.00 
   5   6   1   58.29    5.90 
  -6  -6  -1  210.98   13.70 
   6   6   1  211.68   13.30 
   6   6   1  209.38   14.20 
   6   6   1  196.68   14.20 
  -7  -6  -1   66.89    8.20 
   7   6   1   74.59    8.40 
   7   6   1   71.09    8.50 
   7   6   1   75.89    7.80 
  -8  -6  -1   19.50    5.60 
   8   6   1   26.90    6.00 
   8   6   1   36.40    6.60 
   8   6   1   25.70    6.50 
  -9  -6  -1    5.80    5.60 
   9   6   1   -3.10    3.70 
   9   6   1   -1.10    3.90 
   4  -7  -1   44.90    8.00 
  -4   7   1   41.10    5.60 
  -4   7   1   55.79    5.70 
   3  -7  -1  199.88   14.20 
  -3   7   1  176.28   10.50 
  -3   7   1  180.78   10.30 
   2  -7  -1  231.58   14.80 
  -2   7   1  240.08   11.30 
  -2   7   1  221.08   10.70 
   1  -7  -1  139.49   10.90 
  -1   7   1  155.28    7.30 
  -1   7   1  152.48    7.00 
   0  -7  -1  521.75   25.00 
   0  -7  -1  518.05   24.80 
   0   7   1  511.25   19.30 
   0   7   1  528.35   19.60 
  -1  -7  -1  190.68   12.10 
  -1  -7  -1  181.88   11.00 
   1   7   1  178.08   12.00 
   1   7   1  176.68    9.00 
   1   7   1  176.98    8.50 
  -2  -7  -1   88.09    6.70 
   2   7   1   85.09    5.90 
   2   7   1   82.29    5.80 
   2   7   1   88.59    8.70 
  -3  -7  -1  832.22   35.30 
   3   7   1  890.91   37.10 
   3   7   1  860.41   34.70 
   3   7   1  867.81   34.70 
  -4  -7  -1  272.47   15.20 
  -4  -7  -1  272.17   12.40 
   4   7   1  258.17   14.80 
   4   7   1  277.57   15.50 
   4   7   1  282.27   15.10 
  -5  -7  -1  188.18   11.10 
   5   7   1  190.68   12.00 
   5   7   1  164.48   11.70 
  -6  -7  -1  115.69    9.50 
   6   7   1   91.29    9.90 
   6   7   1   96.79    9.20 
   6   7   1  131.79    9.80 
  -7  -7  -1  183.58   14.00 
   7   7   1  210.68   14.00 
   7   7   1  182.98   14.20 
   7   7   1  197.58   15.00 
  -8  -7  -1   17.60    5.90 
   8   7   1   21.90    5.80 
   8   7   1   20.70    5.50 
   9   7   1   11.90    4.60 
   9   7   1   19.20    5.60 
   3  -8  -1   61.49    9.40 
  -3   8   1   67.69    5.90 
  -3   8   1   80.99    6.40 
   2  -8  -1  175.78   20.90 
  -2   8   1  193.78    9.80 
  -2   8   1  188.08    9.50 
   1  -8  -1   36.50    6.20 
  -1   8   1   39.90    3.10 
  -1   8   1   38.90    3.00 
   0  -8  -1   39.10    6.60 
   0   8   1   55.49    3.70 
  -1  -8  -1  588.84   27.60 
   1   8   1  593.94   23.00 
   1   8   1  574.74   27.60 
   1   8   1  566.14   22.80 
  -2  -8  -1  409.46   19.70 
  -2  -8  -1  394.26   21.10 
   2   8   1  417.56   18.40 
   2   8   1  430.86   21.90 
   2   8   1  405.76   18.30 
  -3  -8  -1   36.90    5.00 
   3   8   1   42.90    5.40 
   3   8   1   34.30    5.80 
   3   8   1   43.50    4.60 
   4   8   1  167.88   11.10 
   4   8   1  177.78   12.40 
   4   8   1  173.38   11.40 
  -5  -8  -1   89.79    6.40 
   5   8   1   93.09    8.70 
   5   8   1   99.79    8.90 
   5   8   1   98.69    8.50 
  -6  -8  -1    0.70    2.70 
   6   8   1    5.60    2.20 
   6   8   1    4.80    3.10 
   6   8   1    5.00    2.80 
   7   8   1   40.90    7.20 
   7   8   1   38.00    7.20 
   7   8   1   65.79    7.30 
   8   8   1   49.99    8.60 
   8   8   1   40.40    7.00 
   9   8   1  109.49   12.80 
   2  -9  -1    1.00    3.20 
  -2   9   1    4.50    1.80 
  -2   9   1    7.00    2.00 
   1  -9  -1    7.00    3.60 
  -1   9   1    6.30    1.70 
   0  -9  -1  916.61   40.50 
   0   9   1  894.41   33.60 
   0   9   1  920.91   33.70 
  -1  -9  -1   12.20    4.10 
   1   9   1   13.00    2.30 
   1   9   1    8.20    2.20 
  -2  -9  -1   60.29    7.20 
   2   9   1   55.29    6.80 
   2   9   1   51.69    4.90 
   2   9   1   60.79    5.40 
   3   9   1   49.00    5.20 
   3   9   1   43.70    5.20 
   3   9   1   53.89    7.00 
   4   9   1    1.10    2.00 
   4   9   1    4.20    2.40 
   4   9   1   -1.00    2.70 
   5   9   1    4.20    3.10 
   5   9   1    5.30    2.90 
   5   9   1    3.00    2.90 
   6   9   1    1.30    2.30 
   6   9   1   -1.80    2.90 
   6   9   1   -4.00    3.10 
   7   9   1   31.60    6.60 
   7   9   1   39.30    7.00 
   8   9   1   14.10    4.90 
   0  10   1    9.00    2.00 
   0  10   1   14.40    2.10 
  -1 -10  -1   26.10    5.70 
   1  10   1   34.90    3.80 
   1  10   1   32.00    4.00 
  -2 -10  -1  119.19   11.00 
   2  10   1  130.19    8.50 
   2  10   1  138.19   11.20 
   2  10   1  136.89    8.80 
  -3 -10  -1   10.80    3.90 
   3  10   1   10.30    4.70 
   3  10   1   16.80    3.40 
   3  10   1   12.70    3.50 
   4  10   1   51.09    6.40 
   4  10   1   56.09    7.20 
   4  10   1   58.89    8.00 
   5  10   1   10.10    4.70 
   5  10   1   15.40    5.90 
   5  10   1   16.60    4.20 
   6  10   1  268.57   20.50 
   6  10   1  321.57   19.30 
   7  10   1   52.79    8.80 
   7  10   1   47.10    7.70 
  -3 -11  -1   -1.80    3.10 
   3  11   1   -0.60    2.90 
   3  11   1   -3.60    3.80 
  -4 -11  -1   28.50    6.40 
   4  11   1   36.70    7.40 
   4  11   1   39.50    5.40 
   4  11   1   36.00    8.40 
   5  10  -2   28.80    6.50 
   4  10  -2   -0.20    2.70 
   3  10  -2    7.30    3.90 
   3  10  -2    9.30    3.90 
   2  10  -2   20.50    4.70 
   2  10  -2   17.50    4.70 
   1  10  -2   23.80    5.00 
   1  10  -2   29.60    4.90 
   0  10  -2   47.00    7.30 
   0  10  -2   67.89    6.50 
   6   9  -2   27.00    5.60 
   6   9  -2   16.30    6.20 
   5   9  -2  336.57   21.00 
   5   9  -2  327.07   17.80 
   4   9  -2   -0.50    2.30 
   4   9  -2   -0.60    2.40 
   4   9  -2    2.50    3.40 
   3   9  -2  120.29   10.30 
   3   9  -2  136.29   10.70 
   3   9  -2  119.69    7.80 
  -3  -9   2  127.69    7.90 
  -3  -9   2  103.29   10.50 
   2   9  -2   76.79    7.40 
   2   9  -2   53.29    6.90 
  -2  -9   2   74.29    5.10 
  -2  -9   2   60.69    5.10 
   1   9  -2  260.67   15.20 
   1   9  -2  256.27   15.00 
  -1  -9   2  272.87   12.40 
   0   9  -2    1.70    2.50 
   0   9  -2    2.40    2.10 
   0  -9   2   -1.60    1.70 
  -1   9  -2   96.19    7.80 
  -1   9  -2  104.89    8.10 
  -2   9  -2   97.59    7.70 
  -2   9  -2   86.09    7.60 
   2  -9   2   86.09    8.20 
   7   8  -2   46.80    9.10 
   7   8  -2   31.30    5.90 
   6   8  -2    3.30    5.70 
   6   8  -2   15.00    3.80 
   6   8  -2   17.70    4.90 
   5   8  -2  231.58   16.60 
   5   8  -2  249.18   17.30 
   5   8  -2  261.87   13.90 
  -5  -8   2  226.28   14.80 
  -5  -8   2  263.07   14.30 
   4   8  -2  154.18   12.20 
   4   8  -2  165.88   13.10 
   4   8  -2  182.48   10.70 
  -4  -8   2  162.58   10.00 
   3   8  -2  386.86   20.50 
   3   8  -2  368.96   20.10 
   3   8  -2  377.16   17.50 
  -3  -8   2  376.06   16.90 
   2   8  -2    6.10    2.70 
   2   8  -2    6.10    2.30 
   2   8  -2    8.10    2.00 
  -2  -8   2    6.00    2.10 
  -2  -8   2    4.50    1.50 
   1   8  -2   14.00    3.00 
   1   8  -2    9.40    3.00 
  -1  -8   2   10.70    2.00 
  -1  -8   2   10.50    2.10 
   0   8  -2  156.28   10.20 
   0   8  -2  144.69    9.70 
   0  -8   2  137.89    8.30 
   0  -8   2  164.08    8.50 
  -1   8  -2    6.90    2.40 
  -1   8  -2    7.60    3.10 
   1  -8   2   13.40    2.80 
   1  -8   2    6.90    2.60 
  -2   8  -2   21.30    3.60 
  -2   8  -2   13.40    3.60 
   2  -8   2   10.00    7.30 
   2  -8   2   22.20    4.30 
  -3   8  -2   -5.20    2.40 
  -3   8  -2    5.20    2.40 
   3  -8   2   -1.00    2.60 
  -4   8  -2   79.99    7.80 
  -4   8  -2   63.49    7.70 
   4  -8   2   82.99    8.60 
   8   7  -2  107.39   10.50 
   8   7  -2  104.49   12.30 
   7   7  -2    5.80    3.30 
   7   7  -2    7.00    4.00 
   6   7  -2  125.99   11.70 
   6   7  -2  125.29    9.50 
   6   7  -2  122.09   11.30 
  -6  -7   2   98.79   10.80 
   5   7  -2    6.70    2.50 
   5   7  -2    1.40    3.00 
   5   7  -2    1.70    2.60 
  -5  -7   2    6.00    3.00 
  -5  -7   2    2.50    3.00 
   4   7  -2  144.89   11.60 
   4   7  -2  156.28   11.80 
   4   7  -2  152.18    9.20 
  -4  -7   2  147.89    9.40 
  -4  -7   2  156.48   10.70 
   3   7  -2  224.78   14.00 
   3   7  -2  225.08   13.90 
   3   7  -2  217.88   11.60 
  -3  -7   2  223.88   11.40 
  -3  -7   2  215.28   11.80 
   2   7  -2  763.82   33.80 
   2   7  -2  771.02   30.80 
   2   7  -2  830.62   34.10 
  -2  -7   2  834.72   30.80 
  -2  -7   2  782.42   29.30 
   1   7  -2  122.49    8.20 
   1   7  -2  101.19    8.00 
  -1  -7   2   97.89    6.00 
  -1  -7   2  116.69    6.30 
   0   7  -2  180.48   10.40 
   0   7  -2  176.68   10.60 
   0  -7   2  190.38    9.00 
   0  -7   2  162.28    8.80 
  -1   7  -2  667.13   26.70 
  -1   7  -2  641.04   25.80 
   1  -7   2  627.14   26.00 
   1  -7   2  523.65   24.80 
  -2   7  -2    4.20    2.30 
  -2   7  -2    4.70    2.00 
   2  -7   2    3.00    3.30 
   2  -7   2    7.50    2.80 
  -3   7  -2  168.68   10.90 
  -3   7  -2  169.38   10.70 
   3  -7   2  173.58   12.00 
  -4   7  -2   29.60    5.40 
  -4   7  -2   42.60    5.70 
   4  -7   2   40.60    6.60 
  -5   7  -2   23.70    4.70 
   5  -7   2   13.60    4.80 
   8   6  -2   33.10    7.40 
   8   6  -2   44.80    7.70 
  -8  -6   2   28.50    9.10 
   7   6  -2    0.30    2.90 
   7   6  -2    3.40    4.70 
   7   6  -2    0.00    3.10 
  -7  -6   2   -2.20    2.90 
   6   6  -2 1114.19   49.40 
   6   6  -2 1119.29   45.90 
   6   6  -2 1095.09   48.90 
   5   6  -2    9.90    2.70 
   5   6  -2    3.70    3.40 
   5   6  -2    3.50    2.90 
  -5  -6   2   10.00    3.10 
  -5  -6   2    6.90    3.10 
   4   6  -2  828.52   37.00 
   4   6  -2  870.51   37.40 
   4   6  -2  845.42   33.30 
  -4  -6   2  834.12   33.90 
  -4  -6   2  809.82   35.80 
   3   6  -2  427.26   21.00 
   3   6  -2  410.86   17.80 
  -3  -6   2  398.96   24.50 
  -3  -6   2  426.16   18.20 
   2   6  -2   23.40    4.20 
   2   6  -2   25.20    3.00 
   2   6  -2   26.30    4.20 
  -2  -6   2   29.80    3.30 
  -2  -6   2   31.10    3.10 
   1   6  -2    9.60    2.60 
  -1  -6   2    9.70    1.80 
  -1  -6   2   12.20    2.10 
   0   6  -2   48.30    4.40 
   0   6  -2   34.40    3.90 
   0  -6   2   41.40    3.30 
   0  -6   2   39.50    3.30 
  -1   6  -2 1180.78   43.40 
  -1   6  -2 1190.18   44.00 
   1  -6   2 1218.48   44.10 
   1  -6   2  973.30   42.30 
  -2   6  -2   36.70    4.10 
  -2   6  -2   35.20    4.20 
   2  -6   2   37.60    5.20 
   2  -6   2   28.50    4.40 
  -3   6  -2   40.30    4.50 
  -3   6  -2   37.40    4.80 
   3  -6   2   41.10    5.20 
   3  -6   2   38.50    6.30 
  -4   6  -2  280.37   15.30 
  -4   6  -2  291.67   16.00 
   4  -6   2  246.78   16.00 
  -5   6  -2  178.78   12.70 
  -5   6  -2  172.98   12.10 
   5  -6   2  160.48   13.20 
  -6   6  -2   64.19    8.20 
   6  -6   2   54.59    9.10 
   9   5  -2   -9.20    4.20 
   8   5  -2   -5.80    2.90 
   8   5  -2   -0.70    3.20 
  -8  -5   2    1.30    4.10 
   7   5  -2   36.70    6.80 
   7   5  -2   32.80    9.00 
  -7  -5   2   24.20    6.40 
   6   5  -2  388.26   26.30 
   6   5  -2  396.26   22.50 
   6   5  -2  397.96   20.80 
  -6  -5   2  346.17   21.80 
   5   5  -2 1818.52   70.19 
   5   5  -2 1953.40   73.39 
   5   5  -2 1818.42   73.29 
  -5  -5   2 1798.02   70.09 
  -5  -5   2 1896.81   73.29 
   4   5  -2  336.97   20.30 
   4   5  -2  388.76   20.10 
   4   5  -2  377.46   17.30 
  -4  -5   2  346.07   19.00 
  -4  -5   2  379.16   17.50 
   3   5  -2  115.89    8.70 
   3   5  -2  114.69    6.70 
   3   5  -2  126.39    9.10 
  -3  -5   2  110.79    7.00 
  -3  -5   2  112.19    8.30 
   2   5  -2 1966.20   71.69 
   2   5  -2 2011.60   75.09 
   2   5  -2 2094.99   75.29 
  -2  -5   2 1984.50   73.69 
  -2  -5   2 2058.19   72.49 
   1   5  -2    2.20    1.30 
   1   5  -2    0.70    1.00 
  -1  -5   2    1.20    0.90 
  -1  -5   2    0.70    0.80 
  -1  -5   2    3.00    1.20 
  -1  -5   2    4.60    1.10 
   0   5  -2 1846.72   64.29 
   0   5  -2 1720.33   64.39 
   0  -5   2 1739.63   62.19 
   0  -5   2 1783.32   62.09 
   0  -5   2 1705.93   60.79 
   0  -5   2 1753.42   60.79 
  -1   5  -2   31.10    3.50 
  -1   5  -2   28.50    3.20 
   1  -5   2   30.90    3.60 
   1  -5   2   28.50    2.90 
  -2   5  -2  355.06   16.70 
  -2   5  -2  379.36   17.00 
   2  -5   2  364.36   16.90 
   2  -5   2  382.36   18.30 
  -3   5  -2 3158.08  109.89 
  -3   5  -2 2861.11  110.29 
  -3   5  -2 3142.99  109.49 
   3  -5   2 2966.20  111.99 
   3  -5   2 3084.59  110.59 
  -4   5  -2    4.80    2.30 
  -4   5  -2   10.60    2.60 
   4  -5   2    5.30    2.60 
  -5   5  -2   26.30    5.00 
  -5   5  -2   19.10    4.50 
   5  -5   2   22.60    5.30 
  -6   5  -2  135.89   12.00 
  -6   5  -2  146.89   11.60 
   6  -5   2  152.88   13.10 
  -7   5  -2   -3.00    3.30 
   7  -5   2    9.70    5.30 
   9   4  -2    3.70    6.20 
   9   4  -2   11.70    6.20 
  -9  -4   2   31.20    8.50 
   8   4  -2   33.70    7.10 
   8   4  -2   22.80    6.20 
  -8  -4   2   31.80    8.10 
   7   4  -2   19.50    5.50 
   7   4  -2   11.90    4.40 
  -7  -4   2    6.80    5.90 
   6   4  -2   63.09    7.90 
   6   4  -2   61.79    7.20 
   6   4  -2   63.99    8.10 
  -6  -4   2   54.19    7.60 
   5   4  -2  538.85   26.90 
   5   4  -2  554.34   25.40 
   5   4  -2  550.74   26.60 
  -5  -4   2  534.35   24.70 
  -5  -4   2  513.65   26.60 
   4   4  -2  564.54   26.20 
   4   4  -2  542.45   25.70 
   4   4  -2  520.85   23.60 
  -4  -4   2  551.54   25.60 
  -4  -4   2  526.25   23.40 
  -4  -4   2  539.25   25.50 
   3   4  -2 1582.24   57.79 
   3   4  -2 1342.27   63.79 
   3   4  -2 1608.04   60.69 
  -3  -4   2 1640.44   60.19 
  -3  -4   2 1585.94   57.89 
  -3  -4   2 1679.43   60.59 
   2   4  -2 5247.18  197.68 
   2   4  -2 5929.91  201.48 
   2   4  -2 6138.49  201.58 
  -2  -4   2 5880.51  200.68 
  -2  -4   2 5466.95  200.18 
   1   4  -2  352.76   16.60 
   1   4  -2  362.46   16.50 
   1   4  -2  369.96   14.30 
  -1  -4   2  369.16   15.90 
  -1  -4   2  376.26   15.70 
  -1  -4   2  371.46   14.10 
   0   4  -2 3680.93  133.29 
   0   4  -2 3607.84  129.69 
   0  -4   2 3835.32  127.49 
   0  -4   2 3284.07  129.19 
   0  -4   2 3664.43  128.59 
   0  -4   2 4102.09  128.79 
  -1   4  -2  130.59    7.70 
  -1   4  -2  153.38    7.80 
   1  -4   2  135.89    9.20 
   1  -4   2  131.49    6.00 
   1  -4   2  137.79    6.20 
   1  -4   2  140.69    7.00 
  -2   4  -2   -0.10    1.00 
  -2   4  -2    0.40    1.00 
  -2   4  -2    0.00    1.10 
   2  -4   2    4.10    0.80 
   2  -4   2    1.60    0.60 
   2  -4   2    4.40    1.70 
   2  -4   2    0.50    0.90 
  -3   4  -2   83.69    6.10 
  -3   4  -2   83.99    6.70 
  -3   4  -2   71.29    6.10 
   3  -4   2   77.39    6.40 
  -4   4  -2  341.87   16.70 
  -4   4  -2  327.97   17.10 
   4  -4   2  329.67   17.70 
   4  -4   2  316.47   17.00 
  -5   4  -2  107.29    9.10 
   5  -4   2  104.09    9.20 
   5  -4   2   97.59    6.30 
  -6   4  -2   63.39    7.80 
  -6   4  -2   86.89    8.60 
   6  -4   2   98.99    9.60 
  -7   4  -2    5.30    3.40 
   7  -4   2    3.60    3.90 
   9   3  -2    7.00    4.60 
  -9  -3   2    7.40    6.70 
   8   3  -2  201.78   17.00 
   8   3  -2  235.98   17.10 
  -8  -3   2  207.48   17.70 
   7   3  -2   53.49    8.70 
   7   3  -2   46.20    7.90 
  -7  -3   2   49.50    9.00 
   6   3  -2   -1.80    1.90 
   6   3  -2    2.90    2.40 
  -6  -3   2   -1.10    2.10 
   5   3  -2  195.88   12.70 
   5   3  -2  181.78   12.60 
   5   3  -2  182.98   13.10 
  -5  -3   2  189.08   13.40 
  -5  -3   2  202.38   13.40 
   4   3  -2   51.39    5.70 
   4   3  -2   55.09    5.80 
   4   3  -2   52.09    5.40 
  -4  -3   2   53.89    5.10 
  -4  -3   2   58.19    6.30 
  -4  -3   2   54.19    5.90 
   3   3  -2 3071.29  112.39 
   3   3  -2 3097.69  110.49 
   3   3  -2 3095.39  112.69 
  -3  -3   2 3065.49  110.09 
  -3  -3   2 3070.19  112.29 
  -3  -3   2 3237.98  112.69 
   2   3  -2  104.89    5.90 
   2   3  -2  118.09    7.70 
   2   3  -2  102.39    7.30 
  -2  -3   2  110.99    6.00 
  -2  -3   2  107.99    7.20 
  -2  -3   2  116.29    7.40 
   1   3  -2 3249.97  121.69 
   1   3  -2 3779.52  125.09 
  -1  -3   2 3777.02  124.79 
  -1  -3   2 3319.47  123.99 
  -1  -3   2 3572.04  121.89 
   0   3  -2 3622.34  122.49 
   0   3  -2 3266.27  121.69 
   0  -3   2 3581.24  121.49 
   0  -3   2 3576.24  121.89 
   0  -3   2 3485.55  119.29 
   0  -3   2 3352.96  119.29 
  -1   3  -2 3917.01  134.89 
  -1   3  -2 3714.53  133.29 
  -1   3  -2 3877.81  134.49 
   1  -3   2 3853.61  133.99 
   1  -3   2 3925.01  133.79 
   1  -3   2 3902.61  133.89 
   1  -3   2 3755.92  133.29 
  -2   3  -2 1061.89   39.00 
  -2   3  -2  978.50   38.40 
  -2   3  -2 1031.20   38.80 
   2  -3   2 1002.80   37.80 
   2  -3   2 1048.50   37.80 
   2  -3   2 1036.60   38.60 
  -3   3  -2 3896.91  131.19 
  -3   3  -2 3502.35  130.99 
  -3   3  -2 3844.92  131.39 
   3  -3   2 3738.83  129.49 
   3  -3   2 3852.11  131.59 
   3  -3   2 3342.47  129.49 
  -4   3  -2    3.00    1.70 
  -4   3  -2    1.90    1.70 
  -4   3  -2    2.00    1.50 
   4  -3   2    5.20    1.80 
   4  -3   2    4.10    1.80 
  -5   3  -2    3.80    2.20 
  -5   3  -2    3.00    2.00 
   5  -3   2   -1.90    1.70 
   5  -3   2    2.80    1.70 
  -6   3  -2  154.78   11.90 
   6  -3   2  145.99    9.80 
   6  -3   2  152.68   12.30 
  -7   3  -2   63.69    8.40 
  -7   3  -2   74.79    8.60 
   7  -3   2   76.19    9.00 
  -8   3  -2   22.50    8.80 
   8  -3   2    5.40    4.90 
   9   2  -2   -5.60    3.50 
  -9  -2   2   -1.50    4.50 
   8   2  -2  129.29   12.80 
   8   2  -2  128.19   12.20 
  -8  -2   2  143.99   13.70 
   7   2  -2   10.40    3.60 
   7   2  -2    2.60    3.10 
  -7  -2   2   12.90    4.80 
  -7  -2   2    8.80    3.70 
   6   2  -2  168.08   12.50 
   6   2  -2  143.49   11.50 
  -6  -2   2  152.48   15.50 
  -6  -2   2  149.79   12.50 
   5   2  -2  449.06   22.70 
   5   2  -2  452.15   23.30 
   5   2  -2  453.95   22.80 
  -5  -2   2  475.65   23.70 
  -5  -2   2  444.66   23.10 
   4   2  -2 2037.50   75.39 
   4   2  -2 1926.11   74.59 
  -4  -2   2 1957.20   73.69 
  -4  -2   2 2055.49   75.59 
  -4  -2   2 1933.21   74.79 
   3   2  -2 1981.60   73.19 
   3   2  -2 1933.41   72.99 
   3   2  -2 1910.81   71.59 
  -3  -2   2 1919.01   71.29 
  -3  -2   2 2032.90   73.09 
  -3  -2   2 1998.50   73.29 
   2   2  -2 1945.31   69.49 
   2   2  -2 1820.02   67.59 
   2   2  -2 1965.10   69.69 
  -2  -2   2 1859.81   69.19 
  -2  -2   2 1874.11   67.39 
  -2  -2   2 1888.21   69.39 
   1   2  -2   11.00    2.10 
   1   2  -2   14.60    1.40 
   1   2  -2   15.90    2.00 
  -1  -2   2   12.70    2.20 
  -1  -2   2   15.00    2.40 
  -1  -2   2   13.60    1.30 
   0   2  -2 1309.07   47.50 
   0  -2   2 1291.67   47.20 
   0  -2   2 1327.57   47.70 
  -1   2  -2 1137.69   41.40 
  -1   2  -2 1225.98   42.90 
   1  -2   2 1091.29   41.70 
   1  -2   2 1238.08   42.90 
   1  -2   2 1167.58   42.50 
  -2   2  -2  158.38    8.00 
  -2   2  -2  166.88    8.70 
   2  -2   2  159.58    8.20 
   2  -2   2  161.28    8.40 
   2  -2   2  177.18    8.40 
  -3   2  -2  409.56   18.30 
  -3   2  -2  440.46   19.00 
   3  -2   2  429.76   18.90 
   3  -2   2  406.36   18.60 
   3  -2   2  421.36   18.10 
  -4   2  -2  639.54   27.80 
  -4   2  -2  649.93   28.20 
   4  -2   2  663.33   27.20 
   4  -2   2  662.93   29.00 
   4  -2   2  672.23   29.80 
  -5   2  -2  203.88   13.20 
  -5   2  -2  219.68   12.90 
   5  -2   2  214.78   12.10 
   5  -2   2  210.68   13.60 
  -6   2  -2  387.66   20.60 
  -6   2  -2  386.46   21.60 
   6  -2   2  404.46   19.70 
   6  -2   2  392.26   21.90 
  -7   2  -2  145.89   12.50 
  -7   2  -2  138.09   11.80 
   7  -2   2  149.88   11.00 
   7  -2   2  160.68   13.70 
  -8   2  -2    5.50    4.40 
   8  -2   2    8.60    4.50 
   8   1  -2   69.49    9.70 
   8   1  -2   73.99   14.00 
  -8  -1   2   82.19   10.80 
   7   1  -2    5.20    3.80 
   7   1  -2   21.30    5.70 
  -7  -1   2   12.10    4.80 
  -7  -1   2    7.60    4.00 
   6   1  -2 2229.28   86.69 
   6   1  -2 2294.37   88.49 
  -6  -1   2 2269.67   88.89 
  -6  -1   2 2297.77   88.39 
   5   1  -2  337.37   18.50 
   5   1  -2  322.87   17.90 
  -5  -1   2  347.67   19.00 
  -5  -1   2  335.57   18.80 
   4   1  -2 2990.30  105.49 
   4   1  -2 2923.11  105.39 
   4   1  -2 2863.71  105.89 
  -4  -1   2 2803.22  105.59 
  -4  -1   2 2879.31  105.99 
  -4  -1   2 2856.21  104.89 
   3   1  -2 9999.00  329.47 
  -3  -1   2 8952.70  328.87 
   2   1  -2 1026.70   38.50 
   2   1  -2  984.60   37.30 
   2   1  -2  975.10   38.40 
  -2  -1   2  980.70   38.50 
  -2  -1   2 1031.60   38.50 
  -2  -1   2  982.60   37.30 
  -2   1  -2 4685.53  157.48 
   2  -1   2 4350.66  157.28 
  -3   1  -2 3196.88  113.39 
  -3   1  -2 2887.51  113.09 
  -3   1  -2 3364.66  114.09 
   3  -1   2 2976.80  113.09 
   3  -1   2 3410.66  113.99 
   3  -1   2 3374.66  113.79 
  -4   1  -2 1754.72   64.69 
  -4   1  -2 1702.53   63.89 
  -4   1  -2 1638.34   63.69 
   4  -1   2 1721.73   64.39 
   4  -1   2 1675.63   63.29 
   4  -1   2 1761.12   63.89 
  -5   1  -2  277.27   15.90 
  -5   1  -2  279.57   15.40 
   5  -1   2  285.77   15.00 
   5  -1   2  292.17   16.20 
  -6   1  -2  122.49   10.20 
  -6   1  -2  118.09    9.60 
   6  -1   2  117.89    9.10 
   6  -1   2  116.39   10.20 
  -7   1  -2  294.77   18.00 
  -7   1  -2  292.57   19.00 
   7  -1   2  295.97   19.10 
   7  -1   2  287.37   16.90 
  -8   1  -2  264.27   19.40 
  -8   1  -2  324.87   20.10 
   8  -1   2  275.37   20.00 
   8  -1   2  281.67   17.50 
  -9   1  -2   -4.40    3.60 
   9  -1   2    2.90    4.90 
   8   0  -2  138.59   14.50 
  -8   0   2  143.09   14.50 
   7   0  -2  116.29   10.50 
   7   0  -2  124.19   12.20 
  -7   0   2  127.79   12.60 
  -7   0   2  135.69   12.10 
   6   0  -2    4.20    3.00 
   6   0  -2    9.90    4.30 
  -6   0   2   14.10    4.30 
  -6   0   2    3.40    3.20 
   5   0  -2 1174.88   46.70 
   5   0  -2 1196.78   48.30 
  -5   0   2 1095.99   47.30 
  -5   0   2 1130.19   47.70 
   4   0  -2  180.58   10.70 
   4   0  -2  158.58   10.80 
   4   0  -2  167.98   10.70 
  -4   0   2  167.98   11.00 
  -4   0   2  161.28   10.70 
  -4   0   2  166.58   11.00 
   3   0  -2  144.29    9.10 
   3   0  -2  146.89    9.10 
   3   0  -2  157.38    9.00 
  -3   0   2  136.49    8.90 
  -3   0   2  166.18    9.70 
  -3   0   2  141.39    9.10 
   2   0  -2 1830.12   65.49 
   2   0  -2 1789.52   65.39 
   2   0  -2 1769.32   65.59 
  -2   0   2 1791.22   65.59 
  -2   0   2 1916.01   66.19 
  -2   0   2 1722.23   65.49 
   1   0  -2  307.07   13.20 
   1   0  -2  293.57   12.90 
  -1   0   2  319.37   13.40 
  -1   0   2  317.47   13.30 
  -1   0   2  292.87   13.10 
  -1   0  -2   87.49    4.60 
  -1   0  -2   79.09    4.00 
  -1   0  -2   83.49    4.60 
   1   0   2   84.49    4.60 
   1   0   2   75.79    4.20 
   1   0   2   83.59    4.70 
  -2   0  -2 2508.35   81.69 
  -2   0  -2 2110.79   81.19 
  -2   0  -2 2168.88   81.09 
   2   0   2 2337.77   80.99 
   2   0   2 2367.76   81.59 
   2   0   2 2267.77   81.19 
  -3   0  -2 5017.60  186.28 
  -3   0  -2 5408.16  186.58 
  -3   0  -2 5618.24  187.08 
   3   0   2 5585.34  186.88 
   3   0   2 5087.99  186.18 
  -4   0  -2 4162.58  150.48 
  -4   0  -2 3883.11  150.08 
  -4   0  -2 4421.36  151.48 
   4   0   2 4337.77  150.78 
   4   0   2 4226.88  150.28 
   4   0   2 4469.55  151.38 
  -5   0  -2   15.40    4.60 
  -5   0  -2   23.50    4.00 
  -5   0  -2   18.80    3.90 
   5   0   2   22.20    4.30 
   5   0   2   21.20    4.20 
   5   0   2   23.30    4.20 
  -6   0  -2   78.19    7.80 
  -6   0  -2   85.39    8.20 
   6   0   2   85.89    8.40 
   6   0   2   87.59    7.80 
  -7   0  -2  127.19   10.80 
  -7   0  -2  137.49   12.10 
   7   0   2  120.99   10.30 
   7   0   2  135.99   12.20 
  -8   0  -2   18.10    4.80 
  -8   0  -2    9.10    4.00 
   8   0   2    8.20    4.40 
   8   0   2    6.50    3.00 
  -9   0  -2   95.29   11.60 
   9   0   2  103.19   12.30 
   8  -1  -2   41.00    8.20 
  -8   1   2   37.80    7.80 
   7  -1  -2  868.31   38.80 
   7  -1  -2  897.31   43.20 
  -7   1   2  871.21   41.80 
  -7   1   2  911.31   42.70 
   6  -1  -2 1256.37   53.69 
   6  -1  -2 1242.78   50.19 
  -6   1   2 1230.28   52.39 
  -6   1   2 1220.98   52.79 
   5  -1  -2  424.36   22.00 
   5  -1  -2  405.66   19.80 
  -5   1   2  376.36   20.50 
  -5   1   2  388.36   20.90 
   4  -1  -2  117.19    7.90 
   4  -1  -2  101.09    8.50 
  -4   1   2  113.89    8.60 
  -4   1   2  108.19    8.10 
   3  -1  -2  229.68   12.10 
   3  -1  -2  240.78   15.70 
   3  -1  -2  247.48   11.90 
  -3   1   2  249.18   12.80 
  -3   1   2  244.08   13.20 
  -3   1   2  192.08   12.40 
   2  -1  -2  739.33   28.70 
   2  -1  -2  693.83   27.10 
   2  -1  -2  681.73   27.30 
  -2   1   2  686.23   28.50 
  -2   1   2  705.83   27.90 
   1  -1  -2  795.22   31.50 
   1  -1  -2  810.32   29.80 
   1  -1  -2  797.62   30.80 
   1  -1  -2  819.02   29.70 
  -1   1   2  794.22   30.00 
  -1   1   2  791.32   30.80 
   0  -1  -2  382.36   16.10 
   0  -1  -2  410.76   15.20 
   0  -1  -2  401.96   15.20 
   0  -1  -2  391.66   16.50 
   0   1   2  398.16   16.50 
   0   1   2  394.06   15.40 
  -2  -1  -2 1473.45   54.79 
  -2  -1  -2 1550.24   54.99 
  -2  -1  -2 1634.24   55.09 
   2   1   2 1446.96   54.89 
   2   1   2 1515.05   54.79 
   2   1   2 1528.35   54.69 
  -3  -1  -2  365.46   16.40 
  -3  -1  -2  373.26   16.40 
  -3  -1  -2  380.96   16.70 
   3   1   2  340.97   17.00 
   3   1   2  376.66   16.30 
   3   1   2  363.16   16.00 
  -4  -1  -2 8222.78  289.97 
  -4  -1  -2 8575.44  290.57 
   4   1   2 8221.88  290.27 
  -5  -1  -2  185.68   11.70 
  -5  -1  -2  193.38   12.30 
  -5  -1  -2  196.28   12.20 
   5   1   2  176.78   11.70 
   5   1   2  206.58   12.60 
   5   1   2  215.48   12.10 
  -6  -1  -2   36.10    5.00 
  -6  -1  -2   47.80    6.00 
   6   1   2   37.70    5.30 
   6   1   2   40.00    6.50 
   6   1   2   38.00    9.60 
  -7  -1  -2   58.59    7.40 
  -7  -1  -2   48.00    7.70 
   7   1   2   54.09    6.70 
   7   1   2   59.89    7.60 
  -8  -1  -2    4.10    3.60 
   8   1   2    1.20    2.70 
   8   1   2   -2.60    2.50 
  -9  -1  -2   23.30    6.70 
   9   1   2    5.90    4.30 
   9   1   2   15.20    5.50 
   8  -2  -2   19.20    6.30 
  -8   2   2   33.30    7.80 
   7  -2  -2    9.10    4.30 
  -7   2   2    3.00    3.70 
  -7   2   2   12.10    6.70 
   6  -2  -2   37.90    5.40 
   6  -2  -2   54.39    7.50 
  -6   2   2   51.79    7.10 
  -6   2   2   49.40    6.80 
   5  -2  -2  273.77   17.50 
   5  -2  -2  295.17   14.80 
  -5   2   2  267.27   16.40 
   4  -2  -2  663.03   30.10 
   4  -2  -2  659.03   26.80 
  -4   2   2  642.34   28.50 
  -4   2   2  645.44   28.70 
   3  -2  -2  587.54   24.30 
   3  -2  -2  565.94   25.40 
  -3   2   2  568.54   24.20 
  -3   2   2  552.04   23.90 
  -3   2   2  534.55   25.40 
   2  -2  -2 2391.46   85.49 
   2  -2  -2 2492.65   89.99 
  -2   2   2 2434.36   86.49 
  -2   2   2 2377.26   88.49 
  -2   2   2 2437.56   86.69 
   1  -2  -2 4873.41  172.08 
   1  -2  -2 4615.54  167.58 
  -1   2   2 4947.00  171.08 
  -1   2   2 5084.99  168.88 
  -3  -2  -2  252.27   12.90 
  -3  -2  -2  287.97   13.10 
  -3  -2  -2  262.87   12.70 
   3   2   2  269.47   12.70 
   3   2   2  271.27   13.10 
   3   2   2  290.37   13.10 
  -4  -2  -2  226.18   12.70 
  -4  -2  -2  248.18   13.10 
  -4  -2  -2  238.98   12.60 
   4   2   2  249.48   12.80 
   4   2   2  233.68   12.80 
   4   2   2  253.37   12.80 
  -5  -2  -2 1270.77   49.70 
  -5  -2  -2 1215.58   49.00 
  -5  -2  -2 1244.58   48.90 
   5   2   2 1246.58   48.70 
   5   2   2 1220.38   49.10 
   5   2   2 1204.38   48.70 
  -6  -2  -2 2605.34  100.39 
  -6  -2  -2 2789.02  101.69 
   6   2   2 2628.44  100.69 
   6   2   2 2706.33  100.29 
   6   2   2 2746.53  100.89 
  -7  -2  -2  230.78   15.80 
  -7  -2  -2  217.78   15.30 
   7   2   2  240.98   15.70 
   7   2   2  208.88   14.30 
  -8  -2  -2   48.40    8.70 
   8   2   2   34.50    7.10 
   8   2   2   33.00    6.80 
  -9  -2  -2   65.29   10.50 
   9   2   2   50.09    8.10 
   9   2   2   56.69    9.70 
 -10  -2  -2   33.30    8.60 
  10   2   2   37.00    7.60 
  -7   3   2    4.60    4.00 
   6  -3  -2    7.30    4.10 
  -6   3   2    6.30    3.40 
  -6   3   2    9.20    3.70 
   5  -3  -2   58.59    7.30 
  -5   3   2   51.29    6.30 
  -5   3   2   56.99    6.50 
   4  -3  -2  338.47   19.10 
   4  -3  -2  359.86   14.60 
  -4   3   2  301.97   22.80 
  -4   3   2  332.97   17.40 
   3  -3  -2  884.21   37.20 
   3  -3  -2  933.01   34.00 
   3  -3  -2  986.90   39.70 
  -3   3   2  968.90   37.30 
  -3   3   2  933.91   36.90 
   2  -3  -2 3048.20  111.49 
   2  -3  -2 3022.40  109.79 
  -2   3   2 3057.09  106.79 
  -2   3   2 3034.70  106.59 
  -2   3   2 2949.60  109.79 
   1  -3  -2 3760.42  132.59 
   1  -3  -2 3580.24  133.49 
  -1   3   2 3787.32  128.89 
  -1   3   2 3753.12  129.09 
   0  -3  -2  994.20   40.80 
   0  -3  -2 1078.59   40.60 
   0   3   2 1045.20   36.50 
   0   3   2 1066.69   36.40 
   0   3   2 1057.19   41.10 
  -1  -3  -2 4944.51  172.78 
  -2  -3  -2    8.60    1.50 
  -2  -3  -2    7.60    1.40 
  -2  -3  -2    6.00    1.50 
   2   3   2    8.60    1.90 
   2   3   2    5.10    1.30 
   2   3   2    4.40    1.30 
  -3  -3  -2  998.80   37.90 
  -3  -3  -2  984.60   38.50 
  -3  -3  -2  986.70   37.90 
   3   3   2 1004.20   38.10 
   3   3   2  996.90   38.40 
   3   3   2 1025.10   38.00 
  -4  -3  -2   94.29    7.10 
  -4  -3  -2   92.69    6.80 
  -4  -3  -2   92.49    7.00 
   4   3   2   86.19    6.80 
   4   3   2   91.19    6.70 
   4   3   2  101.69    7.10 
  -5  -3  -2 1524.95   59.29 
  -5  -3  -2 1462.85   58.89 
  -5  -3  -2 1503.15   58.79 
   5   3   2 1517.15   58.59 
   5   3   2 1582.54   58.89 
   5   3   2 1543.95   59.29 
  -6  -3  -2  205.38   13.90 
  -6  -3  -2  205.58   13.50 
   6   3   2  219.28   13.80 
   6   3   2  214.48   13.40 
   6   3   2  214.78   13.80 
  -7  -3  -2   21.00    5.20 
   7   3   2   22.10    5.30 
   7   3   2   20.30    4.80 
   7   3   2   31.10    5.60 
  -8  -3  -2 1923.01   77.79 
   8   3   2 1848.02   75.99 
  -9  -3  -2  123.89   13.10 
   9   3   2  139.89   13.40 
   9   3   2  142.39   12.50 
 -10  -3  -2   68.29   15.20 
  10   3   2   81.99   11.00 
  -7   4   2  133.29   13.30 
   6  -4  -2   -5.70    3.30 
  -6   4   2    5.10    3.60 
  -6   4   2    6.30    3.70 
   5  -4  -2   34.00    6.50 
  -5   4   2   23.50    4.80 
  -5   4   2   26.70    5.30 
   4  -4  -2   88.29    8.90 
  -4   4   2   85.79    9.20 
  -4   4   2   79.39    6.90 
   3  -4  -2   30.70    5.50 
  -3   4   2   37.90    4.30 
  -3   4   2   48.50    4.50 
   2  -4  -2    4.10    2.10 
   2  -4  -2    1.10    1.50 
  -2   4   2   -0.70    0.80 
  -2   4   2    2.20    1.10 
  -2   4   2    0.40    1.30 
   1  -4  -2 5025.80  219.58 
   1  -4  -2 5936.11  211.98 
  -1   4   2 6835.52  205.08 
   0  -4  -2  528.55   23.30 
   0  -4  -2  522.45   23.70 
   0   4   2  516.45   23.50 
  -1  -4  -2   15.30    2.80 
   1   4   2   18.60    1.40 
   1   4   2   13.70    3.10 
   1   4   2   22.80    1.50 
  -2  -4  -2  960.40   33.30 
  -2  -4  -2  947.11   36.50 
  -2  -4  -2  952.60   33.20 
   2   4   2  912.21   35.10 
   2   4   2  966.00   37.60 
   2   4   2  952.70   34.90 
  -3  -4  -2  151.68    9.30 
  -3  -4  -2  163.58    8.70 
  -3  -4  -2  176.78    8.70 
   3   4   2  162.78    9.20 
   3   4   2  169.18    9.00 
   3   4   2  169.58    9.40 
  -4  -4  -2  409.36   19.10 
  -4  -4  -2  429.96   19.20 
  -4  -4  -2  408.56   19.70 
   4   4   2  419.46   19.20 
   4   4   2  435.66   19.20 
   4   4   2  410.36   19.40 
  -5  -4  -2   33.10    5.20 
  -5  -4  -2   30.50    4.20 
  -5  -4  -2   31.80    5.20 
   5   4   2   26.70    5.90 
   5   4   2   39.20    4.60 
   5   4   2   32.70    4.30 
  -6  -4  -2   67.09    7.30 
   6   4   2   87.69    8.20 
   6   4   2   81.79    7.70 
   6   4   2   88.29    8.00 
  -7  -4  -2  931.81   45.20 
   7   4   2 1064.79   45.10 
   7   4   2 1094.19   45.30 
   7   4   2 1083.59   47.60 
  -8  -4  -2   39.20    7.90 
   8   4   2   49.99    8.00 
   8   4   2   38.20    7.50 
  -9  -4  -2    8.50    4.30 
   9   4   2    2.70    3.70 
   9   4   2    5.20    3.90 
 -10  -4  -2   95.69   12.00 
  10   4   2  100.39   11.90 
  10   4   2  110.39   12.60 
   6  -5  -2  170.18   19.60 
  -6   5   2  210.78   15.10 
   5  -5  -2   75.19    8.80 
  -5   5   2   54.99    7.10 
  -5   5   2   67.89    7.60 
   4  -5  -2   27.10    6.00 
  -4   5   2   32.10    5.30 
  -4   5   2   33.30    4.90 
   3  -5  -2   23.70    5.50 
  -3   5   2   15.90    3.10 
  -3   5   2   20.50    3.50 
   2  -5  -2  867.31   37.60 
  -2   5   2  853.71   32.80 
  -2   5   2  864.01   32.60 
   1  -5  -2  455.15   22.20 
   1  -5  -2  457.45   23.40 
  -1   5   2  457.65   17.00 
  -1   5   2  446.96   17.10 
   0  -5  -2  158.68   15.50 
   0   5   2  146.79   11.10 
  -1  -5  -2  516.75   23.90 
   1   5   2  553.24   20.00 
   1   5   2  568.24   20.00 
   1   5   2  553.54   25.30 
  -2  -5  -2  648.74   27.20 
   2   5   2  693.83   29.10 
   2   5   2  659.43   25.60 
   2   5   2  664.33   25.40 
  -3  -5  -2   17.80    2.10 
  -3  -5  -2   14.80    3.00 
  -3  -5  -2   13.50    1.90 
   3   5   2   14.60    3.10 
   3   5   2   11.90    2.30 
   3   5   2   15.10    2.90 
  -4  -5  -2  831.22   33.50 
  -4  -5  -2  806.82   36.40 
  -4  -5  -2  824.72   35.00 
   4   5   2  886.31   34.70 
   4   5   2  892.41   34.70 
  -5  -5  -2 1339.97   54.09 
   5   5   2 1404.96   54.79 
   5   5   2 1398.26   55.09 
   5   5   2 1454.95   54.49 
  -6  -5  -2    0.00    1.70 
   6   5   2    0.10    1.70 
   6   5   2   -1.70    1.40 
   6   5   2    0.20    1.70 
  -7  -5  -2  195.08   14.40 
   7   5   2  212.48   14.50 
   7   5   2  204.78   14.50 
   7   5   2  225.38   14.50 
  -8  -5  -2  395.36   24.90 
   8   5   2  491.85   26.00 
   8   5   2  480.45   25.40 
   8   5   2  449.86   26.00 
  -9  -5  -2  182.18   15.70 
   9   5   2  151.58   13.80 
   9   5   2  145.99   13.70 
  10   5   2   34.70    7.50 
  10   5   2   26.00    7.30 
   5  -6  -2   12.30    5.10 
  -5   6   2    6.90    3.60 
  -5   6   2   15.50    4.30 
   4  -6  -2  228.18   16.50 
  -4   6   2  230.88   15.60 
  -4   6   2  242.58   14.10 
   3  -6  -2    2.00    5.00 
  -3   6   2    2.60    2.30 
  -3   6   2    5.50    1.70 
   2  -6  -2    6.20    3.20 
  -2   6   2   12.70    2.20 
  -2   6   2    7.20    2.00 
   1  -6  -2  391.36   20.70 
  -1   6   2  398.36   14.90 
  -1   6   2  383.26   15.00 
   0  -6  -2   24.00    4.80 
   0  -6  -2   32.80    5.30 
   0   6   2   31.10    5.10 
  -1  -6  -2  210.68   12.20 
  -1  -6  -2  203.58   12.70 
   1   6   2  202.78   13.00 
   1   6   2  190.98    8.20 
   1   6   2  201.48    8.20 
  -2  -6  -2   41.90    4.40 
   2   6   2   45.40    3.60 
   2   6   2   45.70    3.50 
   2   6   2   39.90    7.70 
  -3  -6  -2  102.99    7.70 
   3   6   2  101.29    6.90 
   3   6   2   98.69    6.60 
   3   6   2  101.19    8.30 
  -4  -6  -2   59.79    4.50 
  -4  -6  -2   59.09    5.80 
   4   6   2   64.39    5.70 
   4   6   2   53.29    5.70 
   4   6   2   56.49    5.50 
  -5  -6  -2  419.86   20.00 
   5   6   2  444.46   21.20 
   5   6   2  431.56   20.80 
   5   6   2  400.76   20.80 
  -6  -6  -2  147.09   11.10 
   6   6   2  171.88   12.30 
   6   6   2  169.08   11.50 
   6   6   2  164.18   11.70 
  -7  -6  -2  440.76   24.00 
   7   6   2  447.86   23.80 
   7   6   2  467.95   24.80 
   7   6   2  485.65   25.50 
  -8  -6  -2   24.30    6.00 
   8   6   2   30.50    6.90 
   8   6   2   20.90    5.00 
   8   6   2   28.40    6.20 
  -9  -6  -2    0.80    4.20 
   9   6   2    4.60    3.60 
   9   6   2   -2.40    3.90 
  10   6   2   30.40    6.70 
  10   6   2   38.00    8.40 
   4  -7  -2   -3.20    3.30 
  -4   7   2    0.20    2.80 
   3  -7  -2  171.08   13.90 
  -3   7   2  176.48   10.10 
  -3   7   2  166.38   10.30 
   2  -7  -2  107.29    9.90 
  -2   7   2   92.39    6.30 
  -2   7   2  106.49    6.20 
   1  -7  -2  578.34   28.40 
  -1   7   2  562.94   21.40 
  -1   7   2  582.14   21.20 
   0  -7  -2   19.70    4.30 
  -1  -7  -2  197.78   13.30 
   1   7   2  204.28    8.50 
   1   7   2  196.08   13.50 
   1   7   2  194.48    8.40 
  -2  -7  -2 2237.88   84.59 
   2   7   2 2321.57   81.69 
   2   7   2 2287.57   87.39 
   2   7   2 2312.97   81.39 
  -3  -7  -2  415.56   20.40 
   3   7   2  443.46   22.50 
   3   7   2  412.46   19.00 
   3   7   2  436.76   19.00 
  -4  -7  -2   19.90    1.90 
   4   7   2   21.40    3.60 
   4   7   2   14.80    3.30 
   4   7   2   22.20    4.70 
  -5  -7  -2  254.97   13.50 
   5   7   2  271.57   15.80 
   5   7   2  287.47   15.90 
   5   7   2  278.67   15.90 
  -6  -7  -2   19.30    4.10 
   6   7   2   16.50    4.00 
   6   7   2   18.70    4.20 
   6   7   2   17.30    4.60 
  -7  -7  -2   16.40    4.50 
   7   7   2   21.50    5.10 
   7   7   2   20.00    5.80 
  -8  -7  -2   79.89    9.40 
   8   7   2   79.79    9.50 
   8   7   2   84.39   10.70 
   8   7   2   79.09    9.10 
   9   7   2   89.49   10.30 
   9   7   2  102.69   10.80 
   3  -8  -2   23.70    6.30 
  -3   8   2   19.50    3.60 
  -3   8   2   23.80    3.90 
   2  -8  -2   53.39    8.50 
  -2   8   2   52.59    4.40 
  -2   8   2   57.69    4.40 
   1  -8  -2    4.50    3.10 
  -1   8   2    3.70    1.10 
  -1   8   2    4.70    1.20 
   0  -8  -2  141.29   11.50 
  -1  -8  -2   52.99    6.90 
   1   8   2   51.79    3.50 
   1   8   2   48.70    3.30 
   1   8   2   39.40    6.80 
  -2  -8  -2  150.78   11.60 
   2   8   2  153.78   12.00 
   2   8   2  136.89    7.80 
   2   8   2  141.99    8.00 
   3   8   2  595.24   29.00 
   3   8   2  564.54   24.80 
   4   8   2  532.05   27.20 
   4   8   2  537.05   24.60 
   4   8   2  530.65   24.10 
   5   8   2   39.00    6.00 
   5   8   2   24.80    4.50 
   5   8   2   33.40    6.10 
  -6  -8  -2    1.50    2.40 
   6   8   2   -2.70    1.90 
   6   8   2   -4.50    1.90 
  -7  -8  -2   60.89    7.30 
   7   8   2   60.19    7.70 
   7   8   2   65.09    8.00 
   7   8   2   64.09    8.60 
   8   8   2    1.70    4.60 
   8   8   2    1.30    2.70 
   9   8   2   37.50    7.30 
   9   8   2   35.30    7.80 
   2  -9  -2    2.30    3.90 
  -2   9   2    0.40    1.50 
  -2   9   2    2.20    1.70 
   1  -9  -2  210.88   15.80 
   0  -9  -2  202.58   14.90 
  -1  -9  -2  233.98   15.90 
   1   9   2  226.18    9.90 
  -2  -9  -2  219.88   15.20 
   2   9   2  209.58   10.70 
   2   9   2  206.48   14.90 
   2   9   2  206.68   10.50 
   3   9   2    7.90    2.40 
   3   9   2    5.60    2.20 
   3   9   2   16.00    4.70 
   4   9   2  157.98   10.50 
   4   9   2  161.28   13.00 
   4   9   2  148.79   10.60 
   5   9   2  152.08   11.10 
   5   9   2  155.98   12.60 
   5   9   2  156.18   11.20 
   6   9   2   93.69    9.50 
   6   9   2   85.69   16.50 
   6   9   2   64.79    7.90 
   7   9   2   88.39    9.40 
   7   9   2   84.59    9.00 
   8   9   2    1.60    4.30 
   8   9   2   -1.10    4.30 
   0 -10  -2   -1.20    4.20 
  -1 -10  -2  107.19   10.70 
   1  10   2  107.59    5.60 
   1  10   2  103.09    5.70 
  -2 -10  -2   -0.90    2.60 
   2  10   2   -0.30    1.50 
   2  10   2   -0.30    2.80 
   2  10   2    6.60    1.90 
  -3 -10  -2    1.10    3.40 
   3  10   2    2.40    3.50 
   3  10   2    3.60    2.50 
   3  10   2   -3.00    1.60 
   4  10   2    4.20    3.70 
   4  10   2    4.20    2.40 
   5  10   2    6.00    3.10 
   5  10   2    5.60    3.30 
   5  10   2   13.50    7.40 
   6  10   2   10.00    4.30 
   6  10   2   -1.50    4.00 
   7  10   2   77.79   11.60 
   7  10   2   97.19   10.60 
  -3 -11  -2   15.50    6.20 
   3  11   2   36.50    4.60 
   3  11   2   34.90    5.20 
  -4 -11  -2   23.20    6.30 
   4  11   2   31.70    7.40 
   4  11   2   27.70    4.90 
   4  11   2   34.90    5.60 
   4  10  -3   18.60    5.50 
   3  10  -3   23.30    5.80 
   2  10  -3   29.60    5.70 
   1  10  -3    7.40    3.40 
   6   9  -3   10.70    3.70 
   6   9  -3    5.80    4.80 
   5   9  -3   -0.30    2.70 
   5   9  -3    5.60    4.80 
   4   9  -3   13.00    4.60 
   4   9  -3   20.80    3.40 
   3   9  -3   43.30    5.90 
   3   9  -3   34.90    6.60 
   2   9  -3    4.00    2.70 
   2   9  -3    3.00    3.00 
   1   9  -3   -0.90    2.80 
   1   9  -3    0.80    2.20 
   0   9  -3    5.20    2.70 
   0   9  -3   -1.30    2.90 
  -1   9  -3   43.40    5.90 
  -2   9  -3   15.70    4.20 
  -2   9  -3   15.70    3.80 
   7   8  -3   32.30    5.60 
   7   8  -3   33.20    8.00 
   6   8  -3   20.70    4.20 
   6   8  -3   15.00    4.80 
   5   8  -3    0.60    6.00 
   5   8  -3    5.70    2.50 
   5   8  -3    0.00    2.80 
   4   8  -3  291.27   14.70 
   4   8  -3  309.77   19.20 
   4   8  -3  316.87   19.30 
  -4  -8   3  293.97   14.10 
  -4  -8   3  307.37   16.90 
   3   8  -3   26.10    5.50 
   3   8  -3   20.30    2.80 
   3   8  -3   16.10    4.70 
  -3  -8   3   31.50    4.30 
   2   8  -3   23.70    4.80 
   2   8  -3   26.30    5.00 
   1   8  -3  115.49    9.30 
   1   8  -3  126.99    9.80 
   0   8  -3   66.49    6.60 
   0   8  -3   66.59    7.00 
  -1   8  -3   45.50    5.80 
  -1   8  -3   52.79    5.60 
   1  -8   3   46.00    4.00 
   1  -8   3   43.40    3.80 
  -2   8  -3   19.10    3.80 
  -2   8  -3   20.70    4.20 
   2  -8   3   17.30    3.50 
  -3   8  -3   65.79    7.00 
   3  -8   3   64.39    6.70 
   7   7  -3   54.49   12.40 
   7   7  -3   78.49   10.30 
   6   7  -3   52.09    8.40 
   6   7  -3   49.70    5.90 
   6   7  -3   56.59    9.40 
  -6  -7   3   46.50    7.70 
   5   7  -3    5.70    2.30 
   5   7  -3   -4.10    3.90 
   5   7  -3    4.40    3.30 
  -5  -7   3    2.80    3.00 
  -5  -7   3    4.10    2.60 
   4   7  -3   55.89    4.90 
   4   7  -3   42.60    7.20 
   4   7  -3   45.80    7.70 
  -4  -7   3   46.30    4.60 
   3   7  -3 1198.88   59.39 
   3   7  -3 1183.68   43.70 
  -3  -7   3 1101.59   46.20 
  -3  -7   3 1202.68   43.20 
   2   7  -3  216.48   14.00 
  -2  -7   3  242.18    9.30 
  -2  -7   3  228.38   11.90 
   1   7  -3    0.80    1.70 
   1   7  -3   -1.80    1.20 
   0   7  -3   52.79    5.60 
   0   7  -3   50.79    5.60 
   0  -7   3   57.19    3.00 
  -1   7  -3   92.29    7.50 
  -1   7  -3   95.99    7.70 
   1  -7   3  103.79    5.70 
   1  -7   3   81.59    5.40 
  -2   7  -3   23.20    4.10 
  -2   7  -3   23.70    4.30 
   2  -7   3   22.90    3.70 
   2  -7   3   20.90    3.80 
  -3   7  -3   77.99    7.10 
  -3   7  -3   72.19    6.90 
   3  -7   3   73.49    7.00 
   3  -7   3   69.29    8.00 
  -4   7  -3  115.89    9.70 
  -4   7  -3  116.39    9.60 
   4  -7   3   91.39    9.10 
  -5   7  -3   95.79    9.50 
   5  -7   3   84.99    9.50 
   8   6  -3   47.20    7.70 
   8   6  -3   29.60    7.40 
   7   6  -3  130.59   23.30 
   7   6  -3  164.78   13.50 
  -7  -6   3  154.68   14.50 
   6   6  -3   33.30    6.30 
   6   6  -3   34.40    5.90 
   6   6  -3   26.60    6.80 
  -6  -6   3   38.70    7.20 
   5   6  -3   33.00    4.30 
   5   6  -3   27.20    6.10 
   5   6  -3   17.40    4.90 
  -5  -6   3   24.30    5.50 
  -5  -6   3   22.30    4.30 
   4   6  -3 2556.34  111.29 
   4   6  -3 2869.81  105.79 
   4   6  -3 2756.62   99.99 
  -4  -6   3 2882.01  100.69 
  -4  -6   3 2883.11  104.89 
   3   6  -3  180.88   12.30 
   3   6  -3  173.78    8.70 
   3   6  -3  143.49   11.40 
  -3  -6   3  181.28    9.00 
  -3  -6   3  181.48   11.50 
   2   6  -3   -0.20    1.20 
   2   6  -3    5.40    2.30 
   2   6  -3   -0.30    0.80 
  -2  -6   3    0.30    0.70 
  -2  -6   3   -2.20    1.30 
   1   6  -3  966.50   38.80 
   1   6  -3  938.11   38.90 
  -1  -6   3  933.11   36.10 
   0   6  -3 1149.29   46.70 
   0   6  -3 1252.17   46.70 
   0  -6   3 1170.58   42.40 
  -1   6  -3    0.00    1.20 
  -1   6  -3    2.60    1.60 
   1  -6   3    2.30    1.70 
   1  -6   3   -0.30    1.00 
  -2   6  -3   20.10    3.60 
  -2   6  -3   17.10    3.50 
   2  -6   3   14.20    2.70 
   2  -6   3   19.00    3.50 
  -3   6  -3   21.10    4.20 
  -3   6  -3   35.50    4.40 
   3  -6   3   29.60    4.60 
   3  -6   3   32.50    5.60 
  -4   6  -3  161.88   11.00 
  -4   6  -3  163.78   11.50 
   4  -6   3  158.58   11.20 
  -5   6  -3   79.59    8.40 
  -5   6  -3   90.69    8.80 
   5  -6   3   84.59    8.60 
  -6   6  -3   45.00    7.20 
   6  -6   3   34.50    7.40 
   8   5  -3   59.69    8.40 
   8   5  -3   49.70    9.70 
  -8  -5   3   70.89   11.20 
   7   5  -3   21.00    5.40 
   7   5  -3    8.50    4.70 
  -7  -5   3   17.60    5.90 
   6   5  -3   10.50    4.80 
   6   5  -3    7.70    3.20 
   6   5  -3    6.90    3.80 
  -6  -5   3    6.40    3.70 
   5   5  -3  393.26   19.40 
   5   5  -3  386.66   22.10 
   5   5  -3  395.36   22.40 
  -5  -5   3  402.46   20.40 
  -5  -5   3  330.27   21.00 
   4   5  -3   -0.20    1.40 
   4   5  -3    2.70    2.30 
   4   5  -3    1.50    2.10 
  -4  -5   3    2.60    1.80 
  -4  -5   3   -0.80    2.10 
   3   5  -3  163.58    8.40 
   3   5  -3  155.58   11.30 
   3   5  -3  148.09   11.00 
  -3  -5   3  157.38   10.80 
  -3  -5   3  164.68    8.60 
   2   5  -3  262.87   14.80 
   2   5  -3  253.97   10.90 
   2   5  -3  251.07   14.60 
  -2  -5   3  270.97   11.10 
  -2  -5   3  289.57   14.50 
   1   5  -3  813.42   34.20 
   1   5  -3  838.82   34.10 
   0   5  -3  344.97   16.70 
   0   5  -3  339.37   16.40 
   0  -5   3  346.87   15.10 
  -1   5  -3 1489.75   55.79 
  -1   5  -3 1520.75   56.49 
   1  -5   3 1479.55   53.39 
   1  -5   3 1451.05   53.19 
   1  -5   3 1504.05   53.09 
  -2   5  -3 2049.49   71.99 
  -2   5  -3 1893.71   71.99 
   2  -5   3 1723.83   69.89 
   2  -5   3 1979.20   67.59 
   2  -5   3 2071.19   71.79 
  -3   5  -3  970.30   38.20 
  -3   5  -3  971.60   37.90 
  -3   5  -3  898.91   37.20 
   3  -5   3  844.12   36.90 
   3  -5   3  962.20   38.70 
  -4   5  -3    4.10    2.20 
  -4   5  -3    1.10    1.70 
   4  -5   3    4.40    2.20 
  -5   5  -3   76.59    8.00 
   5  -5   3   77.19    8.10 
  -6   5  -3    6.00    3.40 
  -6   5  -3    3.90    3.10 
   6  -5   3    4.70    3.90 
  -7   5  -3  152.58   13.50 
   7  -5   3  151.88   14.10 
   8   4  -3   71.19   11.10 
   8   4  -3   50.39    9.10 
  -8  -4   3   65.19   10.70 
   7   4  -3  585.74   31.10 
   7   4  -3  627.74   31.40 
  -7  -4   3  554.44   31.80 
   6   4  -3  170.88   13.60 
   6   4  -3  147.99   11.90 
  -6  -4   3  163.08   13.70 
   5   4  -3   60.59    6.80 
   5   4  -3   56.79    7.40 
   5   4  -3   71.79    7.70 
  -5  -4   3   50.09    6.80 
   4   4  -3  278.67   16.70 
   4   4  -3  292.27   14.90 
   4   4  -3  267.77   16.40 
  -4  -4   3  270.67   14.20 
  -4  -4   3  264.97   16.30 
   3   4  -3  300.27   16.80 
   3   4  -3  317.67   14.40 
   3   4  -3  321.87   17.30 
  -3  -4   3  314.07   14.30 
  -3  -4   3  305.57   16.80 
  -3  -4   3  298.57   16.40 
   2   4  -3  430.06   20.40 
   2   4  -3  415.76   20.20 
   2   4  -3  398.86   16.50 
  -2  -4   3  440.56   20.00 
  -2  -4   3  437.36   19.70 
  -2  -4   3  407.86   16.60 
   1   4  -3  329.07   16.50 
  -1  -4   3  344.57   15.80 
  -1  -4   3  353.66   16.30 
   0   4  -3 1033.80   41.30 
   0   4  -3 1081.49   41.20 
   0  -4   3 1081.49   40.70 
   0  -4   3 1068.79   40.20 
  -1   4  -3  922.91   36.70 
  -1   4  -3  918.81   36.10 
   1  -4   3  934.61   33.90 
   1  -4   3  912.71   33.90 
   1  -4   3  951.20   35.20 
   1  -4   3  948.51   35.60 
  -2   4  -3  391.66   17.40 
  -2   4  -3  353.86   17.20 
  -2   4  -3  356.36   15.80 
   2  -4   3  359.56   15.90 
   2  -4   3  377.46   16.60 
   2  -4   3  384.56   16.00 
  -3   4  -3  334.57   16.20 
  -3   4  -3  304.57   15.10 
  -3   4  -3  291.67   16.20 
   3  -4   3  317.17   14.20 
   3  -4   3  323.27   15.50 
  -4   4  -3  652.43   29.20 
  -4   4  -3  671.13   28.90 
  -4   4  -3  647.24   28.70 
   4  -4   3  643.34   26.40 
   4  -4   3  676.73   29.30 
  -5   4  -3    2.70    2.20 
  -5   4  -3    0.80    2.10 
   5  -4   3    0.10    2.30 
  -6   4  -3   -2.60    2.60 
  -6   4  -3    4.30    3.00 
   6  -4   3    7.60    3.50 
  -7   4  -3   76.69    9.30 
   7  -4   3   72.89    9.70 
   8   3  -3    8.60    4.90 
   8   3  -3    9.50    4.30 
  -8  -3   3    2.40    4.70 
   7   3  -3   37.90    7.50 
   7   3  -3   27.50    7.00 
  -7  -3   3   33.50    7.10 
   6   3  -3  134.19   11.60 
   6   3  -3  142.09   12.00 
  -6  -3   3  171.48   13.50 
   5   3  -3  459.65   23.90 
   5   3  -3  399.56   22.60 
   5   3  -3  460.45   22.60 
  -5  -3   3  481.05   24.20 
  -5  -3   3  384.76   22.80 
   4   3  -3    7.70    2.70 
   4   3  -3    8.30    3.00 
   4   3  -3    5.20    2.70 
  -4  -3   3    4.50    2.80 
  -4  -3   3    4.10    2.00 
  -4  -3   3    4.30    2.50 
   3   3  -3   43.70    5.10 
   3   3  -3   41.30    4.30 
   3   3  -3   53.79    5.90 
  -3  -3   3   59.99    6.10 
  -3  -3   3   43.70    5.30 
  -3  -3   3   47.40    4.30 
   2   3  -3 5680.13  198.78 
   2   3  -3 5282.27  195.28 
   2   3  -3 5381.56  198.48 
  -2  -3   3 6141.89  199.08 
  -2  -3   3 5765.92  198.48 
  -2  -3   3 5575.64  195.18 
   1   3  -3 1063.39   38.10 
   1   3  -3 1086.79   42.10 
  -1  -3   3 1077.39   38.20 
  -1  -3   3 1095.19   42.10 
  -1  -3   3 1096.39   41.50 
   0   3  -3 2913.71  104.09 
   0  -3   3 2730.93  103.29 
   0  -3   3 3119.59  104.49 
  -1   3  -3  497.05   18.90 
  -1   3  -3  518.75   21.50 
   1  -3   3  529.45   19.30 
   1  -3   3  508.75   21.20 
   1  -3   3  527.95   19.00 
   1  -3   3  539.25   21.70 
  -2   3  -3    3.30    1.50 
  -2   3  -3    7.80    1.60 
  -2   3  -3    3.70    1.60 
   2  -3   3    7.60    1.80 
   2  -3   3    4.40    1.60 
   2  -3   3    4.70    1.40 
  -3   3  -3 1947.11   71.49 
  -3   3  -3 2005.40   72.39 
  -3   3  -3 2000.40   72.59 
   3  -3   3 2019.20   74.09 
   3  -3   3 1792.52   71.89 
   3  -3   3 2004.10   71.89 
  -4   3  -3  248.18   13.70 
  -4   3  -3  243.98   13.80 
  -4   3  -3  249.28   14.30 
   4  -3   3  257.67   14.10 
   4  -3   3  270.67   13.50 
  -5   3  -3 1459.25   57.79 
   5  -3   3 1420.76   55.39 
   5  -3   3 1468.35   58.09 
  -6   3  -3   15.70    4.00 
  -6   3  -3   20.40    4.60 
   6  -3   3   22.20    4.90 
   6  -3   3   18.10    3.60 
  -7   3  -3   -5.90    2.60 
  -7   3  -3    3.40    3.10 
   7  -3   3   -0.20    2.60 
   7  -3   3   -4.90    2.50 
  -8   3  -3   82.29   14.20 
   8  -3   3   82.69   10.50 
   8   2  -3   59.99   10.20 
  -8  -2   3   44.40    9.00 
   7   2  -3   37.90    7.30 
   7   2  -3   33.80    6.80 
  -7  -2   3   23.60    6.80 
   6   2  -3  131.09   11.10 
   6   2  -3  103.29   10.40 
  -6  -2   3  123.49   11.00 
  -6  -2   3  146.69   12.20 
   5   2  -3    0.00    1.50 
   5   2  -3    0.20    2.20 
  -5  -2   3   -0.20    2.20 
  -5  -2   3   -2.90    1.70 
   4   2  -3 1841.62   69.19 
   4   2  -3 1848.22   70.39 
   4   2  -3 1789.62   70.49 
  -4  -2   3 1827.72   68.89 
  -4  -2   3 1777.02   70.39 
  -4  -2   3 1868.61   71.09 
   3   2  -3    3.80    2.10 
   3   2  -3    5.60    1.90 
   3   2  -3   11.60    2.90 
  -3  -2   3    7.30    2.00 
  -3  -2   3   11.50    3.00 
  -3  -2   3   11.10    2.80 
   2   2  -3 4721.43  167.38 
   2   2  -3 4707.83  169.88 
   2   2  -3 4994.90  170.08 
  -2  -2   3 4585.14  169.38 
  -2  -2   3 4919.81  170.18 
  -2  -2   3 4901.41  167.48 
   1   2  -3  187.78    8.20 
   1   2  -3  178.78   10.30 
  -1  -2   3  180.98    8.20 
  -1  -2   3  205.38   10.70 
  -1  -2   3  196.78   10.30 
   0   2  -3 1219.78   46.10 
   0   2  -3 1246.48   46.10 
   0   2  -3 1157.58   42.30 
   0  -2   3 1216.38   45.60 
   0  -2   3 1318.17   46.40 
  -2   2  -3  144.09    7.30 
  -2   2  -3  148.49    8.50 
   2  -2   3  162.88    8.80 
   2  -2   3  147.59    8.30 
   2  -2   3  150.88    7.60 
  -3   2  -3 1680.03   62.39 
  -3   2  -3 1762.52   63.89 
   3  -2   3 1598.74   62.99 
   3  -2   3 1823.32   63.29 
   3  -2   3 1694.53   63.09 
  -4   2  -3   68.09    6.30 
  -4   2  -3   79.39    6.40 
  -4   2  -3   67.39    5.80 
   4  -2   3   71.49    6.00 
   4  -2   3   65.29    6.20 
  -5   2  -3  851.01   36.70 
  -5   2  -3  849.72   36.10 
   5  -2   3  825.02   36.50 
   5  -2   3  867.31   35.30 
  -6   2  -3   63.79    7.70 
  -6   2  -3   72.59    7.40 
   6  -2   3   81.89    7.20 
   6  -2   3   69.69    8.00 
  -7   2  -3  188.58   14.00 
  -7   2  -3  194.08   14.60 
   7  -2   3  190.18   14.80 
  -8   2  -3   91.69   10.30 
   8  -2   3   87.19   10.50 
   8   1  -3  115.69   14.40 
  -8  -1   3  115.39   12.80 
   7   1  -3    4.10    3.00 
   7   1  -3    3.90    3.20 
  -7  -1   3    8.60    4.10 
  -7  -1   3    7.70    5.00 
   6   1  -3   89.79   15.80 
   6   1  -3   74.99    7.80 
  -6  -1   3   73.09    8.70 
  -6  -1   3   96.59    9.40 
   5   1  -3 3144.69  117.69 
   5   1  -3 3276.37  118.59 
  -5  -1   3 3240.88  118.99 
  -5  -1   3 3118.59  119.09 
   4   1  -3  114.39    8.80 
   4   1  -3  107.49    9.00 
   4   1  -3  111.39    8.70 
  -4  -1   3  109.29    9.00 
  -4  -1   3  114.39    9.10 
  -4  -1   3  101.79    8.40 
   3   1  -3  285.97   14.90 
   3   1  -3  320.57   16.10 
   3   1  -3  306.97   15.90 
  -3  -1   3  302.97   15.90 
  -3  -1   3  306.37   15.30 
  -3  -1   3  308.57   16.20 
   2   1  -3  994.60   40.10 
   2   1  -3 1028.80   40.30 
   2   1  -3 1026.90   38.80 
  -2  -1   3 1073.79   40.50 
  -2  -1   3 1022.90   40.60 
  -2  -1   3 1001.10   38.90 
   1   1  -3 4982.00  180.98 
   1   1  -3 5486.15  182.28 
  -1  -1   3 5128.19  181.98 
   0   1  -3  554.24   21.00 
   0   1  -3  559.64   22.80 
   0   1  -3  559.14   22.70 
   0  -1   3  578.44   24.80 
   0  -1   3  552.04   22.30 
  -1   1  -3  891.71   33.60 
  -1   1  -3  859.81   33.10 
  -1   1  -3  857.81   31.40 
   1  -1   3  874.71   33.30 
   1  -1   3  902.31   33.80 
  -2   1  -3 4264.67  158.98 
  -2   1  -3 4835.72  158.68 
  -3   1  -3 2235.18   78.89 
  -3   1  -3 2147.09   78.39 
  -3   1  -3 2117.79   77.59 
   3  -1   3 2243.48   78.09 
   3  -1   3 2184.38   78.49 
   3  -1   3 2012.30   78.09 
  -4   1  -3 3047.30  105.49 
  -4   1  -3 2769.32  104.49 
  -4   1  -3 2877.91  104.39 
   4  -1   3 2755.92  104.29 
   4  -1   3 2916.21  104.89 
   4  -1   3 3015.10  105.09 
  -5   1  -3  366.06   19.30 
  -5   1  -3  350.36   18.40 
  -5   1  -3  369.06   18.80 
   5  -1   3  390.96   19.60 
   5  -1   3  384.06   18.70 
  -6   1  -3    7.50    2.60 
  -6   1  -3    4.80    2.80 
   6  -1   3    0.40    1.90 
   6  -1   3    1.60    2.40 
  -7   1  -3  360.46   21.50 
  -7   1  -3  387.86   22.40 
   7  -1   3  370.96   30.40 
   7  -1   3  383.36   20.60 
  -8   1  -3   86.79   10.20 
  -8   1  -3  120.59   11.90 
   8  -1   3  101.99   11.20 
   8  -1   3   94.49    9.70 
  -9   1  -3   -6.70    3.30 
   8   0  -3    6.70    3.70 
  -8   0   3   -5.80    3.30 
   7   0  -3  155.58   12.50 
   7   0  -3  161.68   14.10 
  -7   0   3  145.79   13.80 
  -7   0   3  168.68   14.60 
   6   0  -3   87.79    9.20 
   6   0  -3   55.89    7.10 
  -6   0   3   82.29    8.70 
  -6   0   3   68.89    8.50 
   5   0  -3 1652.23   64.79 
   5   0  -3 1625.54   63.19 
  -5   0   3 1531.85   64.29 
  -5   0   3 1632.94   64.59 
   4   0  -3   14.60    3.80 
   4   0  -3   17.90    3.80 
  -4   0   3   13.00    3.50 
  -4   0   3   14.30    3.60 
   3   0  -3  951.00   40.50 
   3   0  -3 1048.00   44.00 
  -3   0   3 1062.29   41.50 
  -3   0   3 1046.00   41.40 
  -3   0   3 1050.49   41.70 
   2   0  -3   -0.90    0.80 
   2   0  -3    1.60    1.10 
   2   0  -3    2.10    1.10 
  -2   0   3    0.90    1.00 
  -2   0   3    0.10    1.10 
  -2   0   3    0.10    0.80 
   1   0  -3    5.80    1.50 
   1   0  -3    3.80    1.30 
   1   0  -3    3.90    1.20 
   1   0  -3    6.00    1.60 
  -1   0   3    4.90    1.50 
  -1   0   3    3.90    1.40 
  -1   0   3    4.00    1.30 
   0   0  -3  157.88    7.90 
   0   0  -3  168.18    9.00 
   0   0  -3  169.48    8.50 
   0   0  -3  161.48    8.20 
   0   0   3  167.28    8.60 
   0   0   3  172.58    8.50 
   0   0   3  165.48    8.30 
  -1   0  -3  478.45   19.10 
  -1   0  -3  457.35   18.80 
  -1   0  -3  469.35   17.90 
   1   0   3  464.15   18.30 
   1   0   3  464.15   18.80 
   1   0   3  479.05   19.30 
  -3   0  -3  761.32   31.70 
  -3   0  -3  804.62   32.10 
  -3   0  -3  798.42   31.70 
   3   0   3  824.42   32.20 
   3   0   3  820.22   32.00 
   3   0   3  829.82   31.50 
  -4   0  -3 1040.60   46.60 
  -4   0  -3 1135.09   44.00 
  -4   0  -3 1101.79   43.30 
   4   0   3 1090.79   43.60 
   4   0   3 1145.19   43.40 
   4   0   3 1143.29   43.60 
  -5   0  -3  806.82   34.70 
  -5   0  -3  856.01   35.70 
  -5   0  -3  808.62   34.90 
   5   0   3  867.71   35.60 
   5   0   3  813.52   34.60 
   5   0   3  824.32   35.00 
  -6   0  -3   52.99    6.20 
  -6   0  -3   41.20    6.30 
   6   0   3   46.30    5.80 
   6   0   3   39.70    5.70 
  -7   0  -3    8.80    3.30 
  -7   0  -3   -1.20    3.00 
   7   0   3    7.80    3.60 
  -8   0  -3  209.58   15.50 
  -8   0  -3  191.38   15.20 
   8   0   3  182.38   13.80 
   8   0   3  196.58   15.30 
  -9   0  -3   -6.80    3.40 
   9   0   3    0.80    3.90 
   7  -1  -3   26.20    6.70 
  -7   1   3   26.30    6.60 
  -7   1   3   34.40   11.40 
   6  -1  -3   -2.50    1.70 
   6  -1  -3   -5.30    2.10 
  -6   1   3   -0.80    2.50 
  -6   1   3   -3.90    2.20 
   5  -1  -3 1809.92   69.09 
   5  -1  -3 1815.32   71.89 
  -5   1   3 1796.52   71.09 
  -5   1   3 1802.22   71.29 
   4  -1  -3  212.38   12.50 
   4  -1  -3  227.78   14.20 
  -4   1   3  241.18   14.00 
  -4   1   3  229.78   13.90 
   3  -1  -3   40.20    4.20 
   3  -1  -3   30.60    4.10 
  -3   1   3   36.40    4.40 
  -3   1   3   31.20    4.00 
  -3   1   3   35.70    4.50 
   2  -1  -3   82.89    5.70 
   2  -1  -3   74.29    6.60 
   2  -1  -3   82.79    5.80 
   2  -1  -3   80.09    6.40 
  -2   1   3   79.19    6.10 
  -2   1   3   82.09    6.40 
   1  -1  -3 7302.47  254.67 
   0  -1  -3 2167.78   74.29 
   0  -1  -3 2053.09   74.09 
   0  -1  -3 2064.59   75.39 
   0  -1  -3 2050.79   74.89 
   0   1   3 2078.39   74.39 
   0   1   3 2117.69   75.59 
  -2  -1  -3 2696.23   99.19 
  -2  -1  -3 2839.82   99.49 
  -2  -1  -3 2859.91   99.59 
   2   1   3 2751.52   99.69 
   2   1   3 2866.31   99.19 
   2   1   3 2900.51   99.69 
  -3  -1  -3 2504.15   89.49 
  -3  -1  -3 2553.54   89.89 
  -3  -1  -3 2478.05   89.59 
   3   1   3 2546.75   89.49 
   3   1   3 2363.86   89.89 
   3   1   3 2527.15   89.19 
  -4  -1  -3 2509.15   90.69 
  -4  -1  -3 2431.76   89.99 
  -4  -1  -3 2443.46   90.39 
   4   1   3 2512.75   90.09 
   4   1   3 2594.04   90.29 
   4   1   3 2382.46   90.39 
  -5  -1  -3  410.26   20.60 
  -5  -1  -3  423.56   20.60 
  -5  -1  -3  454.05   21.50 
   5   1   3  425.46   20.90 
   5   1   3  430.96   20.80 
   5   1   3  430.16   20.50 
  -6  -1  -3  775.32   34.10 
  -6  -1  -3  609.84   40.30 
   6   1   3  805.62   33.80 
   6   1   3  789.42   34.30 
   6   1   3  792.22   34.40 
  -7  -1  -3 1166.78   49.10 
  -7  -1  -3 1155.48   48.10 
   7   1   3 1003.60   46.50 
   7   1   3 1170.28   48.80 
  -8  -1  -3   70.79    8.50 
  -8  -1  -3   55.09    9.20 
   8   1   3   59.49    7.10 
   8   1   3   81.79    9.10 
  -9  -1  -3   43.00    8.80 
   9   1   3   58.19    8.60 
   9   1   3   42.30    8.20 
 -10  -1  -3  285.07   22.30 
  10   1   3  238.98   20.70 
   7  -2  -3   16.70   10.10 
  -7   2   3   19.30    5.30 
   6  -2  -3  159.38   10.90 
   6  -2  -3  162.28   14.30 
  -6   2   3  164.28   13.40 
  -6   2   3  179.88   13.90 
   5  -2  -3  530.55   24.50 
   5  -2  -3  560.14   28.60 
  -5   2   3  564.64   27.60 
  -5   2   3  558.24   27.20 
   4  -2  -3    1.80    2.30 
   4  -2  -3    5.50    2.30 
  -4   2   3    4.50    2.20 
   3  -2  -3    0.10    1.40 
   3  -2  -3   -2.10    1.10 
  -3   2   3    1.20    1.20 
   2  -2  -3  290.67   13.20 
   2  -2  -3  289.27   15.30 
   2  -2  -3  297.67   16.60 
   2  -2  -3  301.17   13.40 
  -2   2   3  278.37   13.80 
  -2   2   3  306.57   15.70 
  -2   2   3  301.97   14.50 
   1  -2  -3  436.16   17.20 
   1  -2  -3  462.35   20.10 
   1  -2  -3  425.76   17.20 
   1  -2  -3  423.96   20.60 
  -1   2   3  425.56   19.70 
  -1   2   3  438.36   18.10 
  -1   2   3  458.85   18.30 
   0  -2  -3  251.87   10.40 
   0  -2  -3  250.97   10.20 
   0  -2  -3  246.28   12.50 
   0  -2  -3  249.68   12.90 
   0   2   3  251.17   10.80 
   0   2   3  244.28   11.00 
   0   2   3  263.67   13.30 
  -2  -2  -3    5.10    1.30 
  -2  -2  -3    7.30    1.60 
  -2  -2  -3    6.10    1.60 
   2   2   3    6.30    1.70 
   2   2   3    6.80    1.50 
  -3  -2  -3  670.53   27.10 
  -3  -2  -3  669.03   26.80 
  -3  -2  -3  664.83   26.70 
   3   2   3  665.23   26.60 
   3   2   3  681.83   27.10 
   3   2   3  639.54   26.40 
  -4  -2  -3 1293.47   49.60 
  -4  -2  -3 1278.87   50.09 
  -4  -2  -3 1334.67   50.09 
   4   2   3 1315.47   49.60 
   4   2   3 1320.07   49.60 
   4   2   3 1249.28   49.99 
  -5  -2  -3 1072.09   42.70 
  -5  -2  -3 1071.29   43.10 
  -5  -2  -3 1050.39   42.90 
   5   2   3 1034.60   42.20 
   5   2   3 1045.50   42.40 
   5   2   3 1043.00   42.90 
  -6  -2  -3   37.10    6.20 
  -6  -2  -3   40.30    5.40 
   6   2   3   38.80    5.10 
   6   2   3   31.80    8.80 
   6   2   3   42.70    5.60 
  -7  -2  -3  134.29   11.70 
  -7  -2  -3  137.99   11.30 
   7   2   3  125.69   10.50 
   7   2   3  138.69   11.10 
  -8  -2  -3  435.66   24.60 
   8   2   3  388.16   23.00 
   8   2   3  383.46   22.60 
  -9  -2  -3  163.88   14.20 
   9   2   3  149.79   13.10 
   9   2   3  147.09   13.70 
 -10  -2  -3  222.38   19.20 
  10   2   3  255.17   19.40 
   7  -3  -3   17.20    7.10 
  -7   3   3   34.10    7.50 
   6  -3  -3   74.09    9.80 
  -6   3   3   67.89    8.30 
  -6   3   3   78.99    9.40 
   5  -3  -3   80.49    5.90 
   5  -3  -3   83.19    9.30 
  -5   3   3   74.49    8.00 
  -5   3   3   95.99    8.70 
   4  -3  -3 2386.46   87.29 
   4  -3  -3 2491.95   93.99 
  -4   3   3 2434.36   91.39 
  -4   3   3 2512.45   91.69 
   3  -3  -3  951.50   34.40 
   3  -3  -3  957.20   40.20 
  -3   3   3  900.51   37.40 
  -3   3   3  929.41   37.60 
   2  -3  -3  258.47   14.60 
   2  -3  -3  248.68    9.60 
   2  -3  -3  246.88    9.70 
   2  -3  -3  246.28   15.40 
  -2   3   3  260.67   12.60 
  -2   3   3  256.07   12.30 
  -2   3   3  233.08   14.20 
   1  -3  -3  102.39    7.70 
   1  -3  -3  106.99    8.90 
  -1   3   3   95.79    5.70 
  -1   3   3   92.99    5.60 
   0  -3  -3    4.00    1.70 
   0  -3  -3    1.10    1.40 
   0   3   3    1.00    1.20 
   0   3   3   -0.30    0.50 
   0   3   3    2.60    0.80 
  -1  -3  -3  945.51   32.20 
  -1  -3  -3  916.61   36.60 
   1   3   3  943.01   33.80 
   1   3   3  915.61   33.70 
   1   3   3  935.11   37.50 
  -2  -3  -3  117.49    5.80 
  -2  -3  -3  111.79    6.90 
  -2  -3  -3  115.79    6.00 
   2   3   3  110.49    6.40 
   2   3   3  118.89    6.30 
   2   3   3  114.89    7.60 
  -3  -3  -3 4435.96  151.38 
  -3  -3  -3 4097.09  151.98 
  -3  -3  -3 4131.79  151.08 
   3   3   3 4590.54  151.58 
   3   3   3 4337.37  151.98 
  -4  -3  -3 2254.67   85.29 
  -4  -3  -3 2261.77   84.69 
  -4  -3  -3 2348.27   84.69 
   4   3   3 2235.68   85.09 
   4   3   3 2403.46   84.99 
   4   3   3 2452.85   85.09 
  -5  -3  -3  534.65   25.80 
  -5  -3  -3  595.24   26.10 
   5   3   3  577.54   25.60 
   5   3   3  561.44   25.90 
   5   3   3  559.94   25.30 
  -6  -3  -3   66.39    7.30 
  -6  -3  -3   60.69    6.60 
   6   3   3   64.39    6.90 
   6   3   3   54.79    6.30 
   6   3   3   69.99    6.80 
  -7  -3  -3   99.89    9.90 
   7   3   3  110.39    9.60 
   7   3   3  112.49    9.90 
   7   3   3  119.09   10.40 
  -8  -3  -3  550.24   30.00 
   8   3   3  547.95   28.50 
   8   3   3  574.64   29.50 
  -9  -3  -3   38.00    8.50 
   9   3   3   30.10    7.00 
   9   3   3   37.20    7.60 
 -10  -3  -3   29.20    7.60 
  10   3   3   28.00    7.10 
  10   3   3   20.30    6.00 
   6  -4  -3  262.87   21.10 
  -6   4   3  251.97   21.20 
   5  -4  -3  262.37   18.10 
  -5   4   3  249.78   15.90 
  -5   4   3  254.37   16.40 
   4  -4  -3  865.61   40.40 
  -4   4   3  861.81   37.50 
  -4   4   3  935.51   37.80 
   3  -4  -3  183.18   12.90 
  -3   4   3  176.08   10.50 
  -3   4   3  171.88   10.60 
   2  -4  -3 1454.15   58.39 
  -2   4   3 1456.45   54.49 
  -2   4   3 1495.95   54.39 
   1  -4  -3  255.07   15.30 
   1  -4  -3  233.78   14.00 
  -1   4   3  232.38   10.60 
  -1   4   3  230.88   10.60 
   0  -4  -3 3522.75  126.39 
   0  -4  -3 3454.95  130.59 
   0   4   3 3616.14  127.09 
   0   4   3 3598.44  120.89 
   0   4   3 3270.37  120.79 
  -1  -4  -3  451.55   21.30 
   1   4   3  468.05   17.70 
   1   4   3  471.05   17.60 
   1   4   3  483.45   22.40 
  -2  -4  -3 1430.96   54.49 
  -2  -4  -3 1458.15   50.59 
  -2  -4  -3 1478.65   50.59 
   2   4   3 1481.55   56.09 
   2   4   3 1407.86   52.59 
   2   4   3 1475.45   52.49 
  -3  -4  -3 5855.91  196.68 
  -3  -4  -3 5479.55  198.18 
  -3  -4  -3 5350.16  196.08 
   3   4   3 5526.85  198.48 
   3   4   3 6232.98  197.48 
   3   4   3 5508.05  197.48 
  -4  -4  -3   35.60    4.10 
  -4  -4  -3   37.10    4.10 
  -4  -4  -3   38.00    4.00 
   4   4   3   31.50    4.00 
   4   4   3   40.40    4.30 
   4   4   3   30.50    6.60 
  -5  -4  -3  603.54   30.20 
  -5  -4  -3  698.73   28.80 
  -5  -4  -3  643.54   28.40 
   5   4   3  654.23   28.30 
   5   4   3  635.04   28.80 
   5   4   3  649.34   28.40 
  -6  -4  -3  851.01   37.20 
   6   4   3  876.91   36.80 
   6   4   3  831.12   36.70 
   6   4   3  841.42   37.30 
  -7  -4  -3  105.59   10.00 
   7   4   3  143.09   11.00 
   7   4   3  131.09   11.00 
   7   4   3  125.29   10.60 
  -8  -4  -3   48.20    8.10 
   8   4   3   37.80    6.70 
   8   4   3   40.30    7.30 
  -9  -4  -3    6.50    4.10 
   9   4   3    9.30    4.00 
   9   4   3    0.30    2.60 
 -10  -4  -3   19.40    6.70 
  10   4   3    1.00    4.00 
  10   4   3    0.20    3.40 
   6  -5  -3   15.70    5.60 
  -6   5   3   14.80    5.00 
   5  -5  -3    2.60    3.70 
  -5   5   3    0.00    2.30 
  -5   5   3   -1.20    2.80 
   4  -5  -3    7.10    3.90 
  -4   5   3    6.60    2.60 
  -4   5   3    0.40    2.00 
   3  -5  -3  330.87   19.50 
  -3   5   3  311.77   15.80 
  -3   5   3  314.97   15.90 
   2  -5  -3   63.29    7.90 
  -2   5   3   90.39    5.90 
  -2   5   3   84.79    5.80 
   1  -5  -3    4.10    2.10 
  -1   5   3   -0.60    0.70 
  -1   5   3    1.50    0.90 
   0  -5  -3 4931.71  166.88 
   0  -5  -3 4253.47  166.18 
   0   5   3 4875.71  167.18 
   0   5   3 4853.41  159.48 
   0   5   3 4256.87  159.28 
  -1  -5  -3  586.84   26.90 
   1   5   3  615.34   22.20 
   1   5   3  607.24   22.20 
   1   5   3  613.74   28.20 
  -2  -5  -3  666.43   31.20 
   2   5   3  677.83   25.60 
   2   5   3  628.54   33.60 
   2   5   3  694.93   25.90 
  -3  -5  -3   33.00    4.10 
  -3  -5  -3   32.30    2.50 
  -3  -5  -3   33.50    2.70 
   3   5   3   29.50    3.30 
   3   5   3   30.60    3.40 
   3   5   3   35.60    4.50 
  -4  -5  -3  205.08   10.90 
  -4  -5  -3  220.78   12.80 
   4   5   3  216.98   12.40 
   4   5   3  203.48   12.00 
   4   5   3  224.68   11.90 
  -5  -5  -3   29.60    4.10 
   5   5   3   39.90    4.90 
   5   5   3   31.30    4.20 
   5   5   3   40.00    5.10 
  -6  -5  -3  179.58   12.20 
   6   5   3  175.58   11.80 
   6   5   3  167.08   12.20 
   6   5   3  160.98   11.50 
  -7  -5  -3  221.38   15.30 
   7   5   3  245.88   15.30 
   7   5   3  234.78   15.50 
   7   5   3  238.28   16.10 
  -8  -5  -3   23.00    5.50 
   8   5   3   24.30    5.20 
   8   5   3   22.30    5.70 
   8   5   3   22.40    5.70 
  -9  -5  -3  234.28   17.60 
   9   5   3  207.68   16.50 
   9   5   3  215.38   17.00 
 -10  -5  -3   22.20   12.40 
  10   5   3   72.79    9.60 
  10   5   3   41.10    8.50 
   5  -6  -3   27.30    6.90 
  -5   6   3   17.70    4.80 
   4  -6  -3   10.30    5.00 
  -4   6   3   18.70    4.20 
   3  -6  -3   19.60    5.50 
  -3   6   3   22.40    4.00 
  -3   6   3   21.30    3.80 
   2  -6  -3   31.60    5.90 
  -2   6   3   38.80    3.90 
  -2   6   3   29.50    3.40 
   1  -6  -3  216.88   14.30 
  -1   6   3  199.68    9.00 
  -1   6   3  188.28    8.90 
   0  -6  -3  446.66   22.70 
   0   6   3  421.66   22.50 
   0   6   3  418.66   15.60 
   0   6   3  418.16   15.60 
  -1  -6  -3   74.79    8.70 
  -1  -6  -3   61.69    7.00 
   1   6   3   67.39    7.20 
   1   6   3   65.99    3.60 
   1   6   3   67.19    3.50 
  -2  -6  -3 1707.83   66.59 
   2   6   3 1804.12   63.09 
   2   6   3 1750.92   63.29 
   2   6   3 1797.72   69.39 
  -3  -6  -3  820.02   33.90 
   3   6   3  780.82   32.20 
   3   6   3  824.52   31.90 
   3   6   3  831.82   35.90 
  -4  -6  -3  116.29    6.60 
   4   6   3  115.69    8.00 
   4   6   3  112.09   10.30 
   4   6   3  130.79    9.70 
  -5  -6  -3   -0.80    1.50 
   5   6   3    2.70    2.00 
   5   6   3   -0.50    1.40 
  -6  -6  -3  176.08   11.90 
   6   6   3  181.28   12.80 
   6   6   3  189.88   12.60 
   6   6   3  190.48   12.80 
  -7  -6  -3   34.40    6.30 
   7   6   3   48.80    6.70 
   7   6   3   46.30    6.10 
   7   6   3   49.90    6.30 
  -8  -6  -3   74.59    9.70 
   8   6   3   72.69    9.80 
   8   6   3   74.49    8.30 
   8   6   3   79.69    8.70 
  -9  -6  -3  237.38   18.10 
   9   6   3  216.28   17.00 
   9   6   3  220.98   16.60 
  10   6   3   13.70    6.40 
  10   6   3    7.70    5.10 
   4  -7  -3  228.78   18.00 
  -4   7   3  237.18   14.30 
  -4   7   3  239.98   14.60 
   3  -7  -3   19.00    5.40 
  -3   7   3   20.70    3.90 
  -3   7   3   20.60    3.70 
   2  -7  -3  389.26   23.20 
  -2   7   3  395.26   17.10 
  -2   7   3  398.36   17.30 
   1  -7  -3    5.00    2.90 
  -1   7   3    9.50    1.60 
  -1   7   3    7.00    1.50 
   0  -7  -3  252.47   16.30 
  -1  -7  -3   11.80    3.90 
   1   7   3   13.10    4.00 
   1   7   3   12.10    1.30 
   1   7   3   14.30    1.50 
   2   7   3    0.60    0.80 
   2   7   3    9.40    3.70 
   3   7   3  778.52   31.00 
   3   7   3  757.82   30.50 
   3   7   3  773.72   35.70 
   4   7   3  509.45   25.70 
   4   7   3  519.85   22.60 
   4   7   3  477.05   22.70 
  -5  -7  -3 1016.70   40.00 
   5   7   3 1038.70   42.90 
   5   7   3 1071.69   43.70 
   5   7   3 1079.49   44.70 
  -6  -7  -3   79.39    7.00 
   6   7   3   93.49    8.30 
   6   7   3   74.99    7.70 
   6   7   3   67.09    7.30 
  -7  -7  -3   34.80    5.80 
   7   7   3   15.60    6.00 
   7   7   3   34.00    6.30 
   7   7   3   21.60    5.20 
  -8  -7  -3  123.99   11.10 
   8   7   3  139.39   11.90 
   8   7   3  140.99   13.50 
   8   7   3  119.19   11.50 
   9   7   3   12.90    4.80 
   9   7   3   11.90    5.00 
   3  -8  -3   19.00    5.60 
  -3   8   3    9.70    3.30 
  -3   8   3   13.70    3.30 
   2  -8  -3    7.30    4.30 
  -2   8   3    6.20    2.00 
  -2   8   3    4.70    2.00 
   1  -8  -3  208.58   15.30 
  -1   8   3  189.38    8.10 
  -1   8   3  186.58    8.20 
   0  -8  -3   30.50    6.40 
  -1  -8  -3  114.09   10.90 
   1   8   3  117.09    5.50 
   1   8   3  117.29   11.20 
   1   8   3  120.39    5.40 
  -2  -8  -3    4.70    2.50 
   2   8   3   -1.40    2.70 
   2   8   3    3.10    1.40 
   2   8   3    3.40    1.10 
   3   8   3  274.27   13.90 
   3   8   3  291.97   18.50 
   4   8   3    4.90    2.20 
   4   8   3    6.20    2.30 
   4   8   3    3.30    2.80 
   5   8   3    5.40    2.60 
   5   8   3    3.60    2.00 
   5   8   3    6.50    3.10 
  -6  -8  -3  252.37   13.50 
   6   8   3  263.57   16.80 
   6   8   3  257.87   15.90 
   6   8   3  256.07   16.40 
  -7  -8  -3    4.80    2.90 
   7   8   3    0.60    3.00 
   7   8   3   10.00    4.10 
   7   8   3   -1.70    2.90 
   8   8   3   66.29    8.80 
   8   8   3   59.99    9.30 
   9   8   3    6.90    4.30 
   9   8   3    6.40    4.80 
   2  -9  -3    4.80    4.70 
  -2   9   3    0.00    1.50 
  -2   9   3   -3.20    2.40 
   1  -9  -3   70.89    9.30 
   0  -9  -3  168.08   14.00 
  -1  -9  -3    3.50    6.10 
   1   9   3   -1.50    3.70 
  -2  -9  -3  148.69   12.50 
   2   9   3  159.98   13.10 
   2   9   3  137.29    7.50 
   2   9   3  140.49    7.70 
   3   9   3  376.56   17.00 
   3   9   3  352.46   17.30 
   3   9   3  389.46   22.90 
   4   9   3   73.39    6.90 
   4   9   3   68.39    6.20 
   4   9   3   71.99    8.90 
   5   9   3   11.70    3.20 
   5   9   3    7.60    4.50 
   5   9   3   15.10    4.10 
   6   9   3    0.00    3.20 
   6   9   3    3.30    2.50 
   6   9   3    2.70    3.50 
   7   9   3   24.60    5.10 
   7   9   3   27.10    6.50 
   8   9   3    4.40    3.70 
   8   9   3    7.00    3.70 
   0 -10  -3    0.50    4.70 
  -1 -10  -3    3.40    4.50 
  -2 -10  -3    7.40    3.40 
   2  10   3   10.80    3.80 
   2  10   3   -1.90    1.60 
  -3 -10  -3   41.70    7.20 
   3  10   3   28.50    6.70 
   3  10   3   40.70    4.90 
   3  10   3   40.70    4.60 
   4  10   3  167.78   14.20 
   4  10   3  142.79   10.40 
   4  10   3  150.98   10.20 
   5  10   3    2.00    2.50 
   5  10   3   -3.40    3.60 
   5  10   3    4.50    3.10 
   6  10   3   10.40    4.60 
   6  10   3   -2.90    4.00 
   6  10   3  -14.10    5.30 
   7  10   3    6.30    4.40 
   7  10   3    6.20    4.90 
  -3 -11  -3    9.70    4.40 
   3  11   3    0.40    2.00 
   3  11   3    6.10    3.30 
   3  11   3   -6.00    3.60 
  -4 -11  -3    2.10    4.10 
   4  11   3   12.40    4.30 
   4  11   3   20.40    5.40 
   4  11   3    9.00    3.00 
   5  11   3   71.29    7.90 
   5   9  -4    3.60    4.20 
   4   9  -4   28.20    7.30 
   3   9  -4   16.30    4.60 
   2   9  -4    0.60    3.10 
   2   9  -4   -5.40    2.20 
   1   9  -4    9.70    3.50 
   1   9  -4   21.10    4.80 
   0   9  -4    9.70    4.00 
  -1   9  -4   33.50    5.80 
  -1   9  -4   30.30    5.60 
  -2   9  -4   10.60    3.60 
   6   8  -4   12.90    5.90 
   6   8  -4   18.10    4.00 
   5   8  -4   52.09    5.30 
   5   8  -4   42.00    8.40 
   4   8  -4   18.60    6.00 
   4   8  -4   21.10    2.90 
   4   8  -4   18.80    5.00 
   3   8  -4  123.59   11.10 
   2   8  -4  212.48   14.40 
   2   8  -4  196.28   14.30 
   1   8  -4    3.20    3.00 
   1   8  -4    2.90    2.90 
   0   8  -4   17.50    4.30 
   0   8  -4   14.70    4.00 
  -1   8  -4   15.70    4.20 
  -1   8  -4   18.10    4.20 
  -2   8  -4    2.00    2.40 
  -2   8  -4    1.90    2.70 
  -3   8  -4    3.20    2.50 
  -3   8  -4   -4.00    2.90 
   7   7  -4   67.79    8.20 
   7   7  -4   79.09   10.40 
   6   7  -4   12.60    4.90 
   6   7  -4   11.40    3.60 
   5   7  -4  118.59   11.90 
   5   7  -4  105.29   11.40 
   5   7  -4  128.19    8.40 
  -5  -7   4  132.69   12.10 
  -5  -7   4  123.69    9.00 
   4   7  -4   82.79    9.50 
   4   7  -4  105.09    6.50 
   4   7  -4   95.49   10.10 
  -4  -7   4   97.39    9.30 
  -4  -7   4   98.79    6.70 
   3   7  -4  115.49   10.70 
  -3  -7   4  136.19    6.30 
  -3  -7   4  138.69   10.30 
   2   7  -4  109.19    9.40 
  -2  -7   4   86.79    7.50 
   1   7  -4  965.30   42.10 
   1   7  -4 1000.40   42.30 
  -1  -7   4 1014.90   38.50 
   0   7  -4    0.70    1.80 
   0   7  -4    0.40    2.00 
  -1   7  -4  643.84   29.60 
  -1   7  -4  686.83   30.40 
  -2   7  -4    8.30    2.80 
  -2   7  -4    3.70    2.70 
   2  -7   4    5.30    1.50 
   2  -7   4    5.80    2.00 
  -3   7  -4   34.10    5.70 
  -3   7  -4   30.80    5.10 
   3  -7   4   36.80    4.40 
  -4   7  -4    8.50    3.60 
  -4   7  -4    5.80    3.60 
   4  -7   4    6.10    2.90 
  -5   7  -4   12.40    4.10 
   5  -7   4    2.80    3.30 
   7   6  -4   30.40    6.80 
   7   6  -4   23.80    5.30 
   6   6  -4  234.48   19.20 
   6   6  -4  259.37   15.20 
  -6  -6   4  243.98   17.70 
   5   6  -4  232.38   13.40 
   5   6  -4  251.27   17.50 
   5   6  -4  227.48   16.80 
  -5  -6   4  237.98   13.80 
   4   6  -4    9.00    3.90 
   4   6  -4    5.40    4.00 
   4   6  -4   12.60    2.60 
  -4  -6   4   -1.00    2.70 
  -4  -6   4    8.30    2.60 
   3   6  -4 1827.02   66.39 
   3   6  -4 1854.91   73.59 
   3   6  -4 1823.62   73.29 
  -3  -6   4 1928.51   66.89 
  -3  -6   4 1892.61   72.49 
   2   6  -4  262.87   16.10 
   2   6  -4  258.67   15.80 
  -2  -6   4  263.07   14.80 
   1   6  -4   48.20    5.70 
   1   6  -4   35.60    5.00 
  -1  -6   4   45.20    5.10 
   0   6  -4   75.19    7.00 
   0   6  -4   84.19    7.40 
   0  -6   4   85.49    5.90 
  -1   6  -4   34.10    4.30 
  -1   6  -4   32.10    4.30 
   1  -6   4   28.90    2.90 
  -2   6  -4  539.15   23.50 
  -2   6  -4  483.85   23.30 
   2  -6   4  445.56   19.60 
   2  -6   4  510.85   20.50 
  -3   6  -4  281.27   16.00 
  -3   6  -4  286.67   15.90 
   3  -6   4  270.67   14.20 
   3  -6   4  281.37   15.20 
  -4   6  -4   27.60    5.70 
  -4   6  -4   24.90    4.80 
  -4   6  -4   25.10    5.20 
   4  -6   4   28.20    5.30 
   4  -6   4   34.90    5.80 
  -5   6  -4   81.29    8.90 
  -5   6  -4  108.39    9.80 
   5  -6   4   98.09    9.40 
  -6   6  -4   -3.90    2.60 
   6  -6   4   -5.20    3.40 
   8   5  -4    1.70    4.20 
   8   5  -4   -8.00    4.20 
   7   5  -4    7.00    4.30 
   7   5  -4    2.30    3.10 
  -7  -5   4    8.20    6.20 
   6   5  -4  299.57   18.20 
   6   5  -4  317.37   20.60 
  -6  -5   4  314.17   20.90 
   5   5  -4  653.23   28.10 
   5   5  -4  580.14   31.10 
   5   5  -4  594.84   31.10 
  -5  -5   4  580.64   30.40 
   4   5  -4   30.50    5.60 
   4   5  -4   39.10    6.90 
   4   5  -4   39.50    4.50 
  -4  -5   4   26.90    5.70 
  -4  -5   4   42.90    4.60 
   3   5  -4  138.79   10.90 
   3   5  -4  125.49   10.40 
   3   5  -4  116.19    7.10 
  -3  -5   4  135.49    7.70 
  -3  -5   4  135.39   10.50 
   2   5  -4 2517.85   95.29 
  -2  -5   4 2535.35   88.59 
  -2  -5   4 2582.64   94.49 
   1   5  -4  172.58   11.60 
   1   5  -4  173.68   11.60 
  -1  -5   4  193.48   11.30 
   0   5  -4  258.27   14.80 
   0   5  -4  263.67   14.70 
   0  -5   4  287.97   14.10 
  -1   5  -4    5.10    2.00 
  -1   5  -4    3.20    1.80 
   1  -5   4    1.30    1.50 
  -2   5  -4  803.22   32.80 
  -2   5  -4  780.92   33.10 
   2  -5   4  791.52   30.80 
   2  -5   4  707.93   29.40 
   2  -5   4  840.22   30.70 
  -3   5  -4  367.76   21.00 
  -3   5  -4  377.76   16.80 
  -3   5  -4  371.46   18.40 
   3  -5   4  300.87   16.10 
   3  -5   4  369.96   17.00 
   3  -5   4  369.46   17.60 
  -4   5  -4    8.70    2.90 
  -4   5  -4    9.50    2.90 
  -4   5  -4    5.10    3.00 
   4  -5   4    2.30    2.40 
   4  -5   4   12.20    3.20 
  -5   5  -4   64.79   10.40 
  -5   5  -4   72.99    7.80 
   5  -5   4   56.19    7.10 
  -6   5  -4  119.89   11.30 
  -6   5  -4  108.79   11.00 
   6  -5   4  137.59   13.80 
  -7   5  -4   27.50    6.70 
   7  -5   4   40.00    7.90 
   8   4  -4   18.50    5.90 
   8   4  -4   15.90    5.90 
  -8  -4   4    1.00    5.20 
   7   4  -4   29.60    7.00 
   7   4  -4   31.20    7.10 
  -7  -4   4   30.70    6.70 
   6   4  -4  212.68   15.00 
   6   4  -4  218.78   16.00 
  -6  -4   4  190.38   16.60 
   5   4  -4  574.24   29.60 
   5   4  -4  577.14   29.70 
   5   4  -4  618.34   27.80 
  -5  -4   4  523.75   29.10 
   4   4  -4  479.25   24.20 
   4   4  -4  442.86   23.40 
  -4  -4   4  358.76   22.10 
  -4  -4   4  443.66   20.50 
   3   4  -4  370.36   17.20 
   3   4  -4  390.06   20.50 
   3   4  -4  362.96   20.20 
  -3  -4   4  386.26   17.10 
  -3  -4   4  398.46   20.50 
   2   4  -4  582.84   22.30 
   2   4  -4  580.04   27.20 
   2   4  -4  592.74   27.10 
  -2  -4   4  526.55   33.70 
  -2  -4   4  594.14   26.70 
   1   4  -4 2666.43   98.19 
   1   4  -4 2684.53   98.39 
  -1  -4   4 2667.33   97.99 
  -1  -4   4 2670.33   96.99 
   0   4  -4 1814.92   69.19 
   0   4  -4 1906.61   69.19 
   0  -4   4 1876.41   68.69 
   0  -4   4 1764.42   67.79 
  -1   4  -4  122.89    8.10 
   1  -4   4  109.79    7.70 
  -2   4  -4 2294.97   85.79 
  -2   4  -4 2378.86   85.59 
   2  -4   4 2349.17   82.29 
   2  -4   4 2309.97   84.69 
  -3   4  -4    2.20    1.80 
  -3   4  -4    5.00    2.60 
  -3   4  -4    4.00    2.40 
   3  -4   4    4.80    2.10 
   3  -4   4    7.80    2.20 
  -4   4  -4  127.29    9.60 
  -4   4  -4  130.89    9.10 
  -4   4  -4  154.68   10.50 
   4  -4   4  133.89    9.40 
   4  -4   4  137.09    8.80 
  -5   4  -4    2.80    2.00 
  -5   4  -4    0.20    2.50 
   5  -4   4    2.90    2.40 
   5  -4   4    6.10    2.20 
  -6   4  -4   12.90    4.30 
   6  -4   4   13.90    4.20 
   6  -4   4   16.70    3.60 
  -7   4  -4  266.97   19.00 
   7  -4   4  306.37   19.90 
   8   3  -4   21.90    6.80 
  -8  -3   4   30.50    8.80 
   7   3  -4   68.99    9.20 
   7   3  -4   69.69    9.60 
  -7  -3   4   73.29    9.80 
   6   3  -4  262.07   17.60 
   6   3  -4  286.27   18.40 
  -6  -3   4  266.47   19.00 
   5   3  -4   27.60    5.60 
   5   3  -4   43.10    6.70 
  -5  -3   4   31.40    6.50 
   4   3  -4  361.86   17.80 
   4   3  -4  330.17   19.30 
  -4  -3   4  333.67   19.40 
  -4  -3   4  346.17   17.40 
  -4  -3   4  311.47   19.10 
   3   3  -4  184.08   12.40 
   3   3  -4  179.28   12.20 
   3   3  -4  179.88   10.40 
  -3  -3   4  184.98   10.40 
  -3  -3   4  198.58   12.40 
  -3  -3   4  175.78   12.30 
   2   3  -4    6.20    2.40 
   2   3  -4    4.40    1.50 
   2   3  -4    1.50    1.60 
  -2  -3   4    6.70    1.80 
  -2  -3   4    2.70    1.90 
  -2  -3   4   10.40    4.00 
   1   3  -4 1283.57   47.10 
   1   3  -4 1359.76   51.79 
   1   3  -4 1279.17   51.49 
  -1  -3   4 1365.46   50.99 
  -1  -3   4 1346.47   51.69 
   0   3  -4 2304.07   86.39 
   0   3  -4 2477.45   86.59 
   0  -3   4 2205.88   85.49 
   0  -3   4 2457.55   86.59 
  -1   3  -4    7.50    2.10 
   1  -3   4   11.80    2.40 
  -2   3  -4 2103.59   81.19 
  -2   3  -4 2379.96   83.59 
   2  -3   4 2316.87   83.59 
   2  -3   4 2294.27   83.09 
   2  -3   4 2336.17   80.49 
  -3   3  -4  943.71   39.30 
  -3   3  -4  968.80   37.40 
   3  -3   4 1020.90   38.00 
   3  -3   4  992.60   39.20 
  -4   3  -4 3462.75  121.29 
  -4   3  -4 3214.68  118.89 
   4  -3   4 3442.76  119.99 
   4  -3   4 3170.78  119.59 
  -5   3  -4  150.78   10.90 
  -5   3  -4  153.48   11.00 
   5  -3   4  126.09    9.80 
   5  -3   4  120.49    9.20 
  -6   3  -4   -3.20    2.70 
  -6   3  -4    7.10    3.10 
   6  -3   4   -1.60    2.20 
   6  -3   4    2.80    2.80 
  -7   3  -4   26.60    5.90 
  -7   3  -4   25.20    5.70 
   7  -3   4   24.20    7.10 
   7  -3   4   27.40    5.90 
  -8   3  -4   38.50    7.70 
   8  -3   4   18.80    6.80 
   8   2  -4   96.29   17.10 
  -8  -2   4   80.19   10.90 
   7   2  -4   47.00    8.30 
   7   2  -4   49.50    8.90 
  -7  -2   4   44.90    8.80 
   6   2  -4   16.60    7.10 
   6   2  -4   17.70    4.90 
  -6  -2   4   19.00    5.10 
  -6  -2   4   21.70    6.00 
   5   2  -4  776.72   35.10 
   5   2  -4  698.93   35.30 
  -5  -2   4  839.32   37.50 
  -5  -2   4  801.42   36.60 
   4   2  -4 3942.91  140.89 
   4   2  -4 3415.16  139.59 
   4   2  -4 3967.00  138.89 
  -4  -2   4 3855.71  138.79 
  -4  -2   4 3823.32  140.69 
  -4  -2   4 4058.49  141.49 
   3   2  -4 1018.80   42.20 
   3   2  -4 1005.50   40.00 
   3   2  -4 1019.60   42.20 
  -3  -2   4 1051.59   42.60 
  -3  -2   4  974.30   41.80 
  -3  -2   4  998.20   40.00 
   2   2  -4  890.91   35.20 
   2   2  -4  963.50   38.50 
  -2  -2   4  956.80   38.50 
  -2  -2   4  894.71   35.40 
  -2  -2   4  904.71   37.70 
   1   2  -4  102.69    7.60 
   1   2  -4   95.69    7.40 
   1   2  -4  104.59    5.50 
  -1  -2   4   88.39    6.30 
  -1  -2   4   99.69    7.20 
  -1  -2   4  104.49    7.60 
   0   2  -4 1522.75   53.99 
   0   2  -4 1455.25   53.79 
   0   2  -4 1541.55   58.09 
   0   2  -4 1604.14   58.09 
   0  -2   4 1500.25   57.19 
   0  -2   4 1641.94   58.39 
  -1   2  -4 2455.25   92.69 
  -1   2  -4 2530.15   89.69 
  -1   2  -4 2685.63   93.69 
   1  -2   4 2463.65   89.79 
   1  -2   4 2773.92   93.99 
   1  -2   4 2626.74   93.19 
   2  -2   4 7055.99  261.47 
   2  -2   4 7573.24  258.57 
   2  -2   4 7903.11  261.67 
  -3   2  -4 4397.96  157.98 
  -3   2  -4 4524.95  156.28 
   3  -2   4 4660.03  156.58 
   3  -2   4 4742.03  158.28 
   3  -2   4 3982.20  157.68 
  -4   2  -4 2533.65   92.09 
  -4   2  -4 2475.15   90.39 
  -4   2  -4 2543.15   91.89 
   4  -2   4 2361.96   91.39 
   4  -2   4 2545.75   91.19 
  -5   2  -4   -0.30    2.00 
  -5   2  -4    0.30    2.20 
  -5   2  -4    5.80    2.40 
   5  -2   4    8.80    2.90 
   5  -2   4    5.40    2.60 
  -6   2  -4   21.60    4.60 
  -6   2  -4   13.40    4.00 
   6  -2   4   15.70    4.20 
   6  -2   4   12.70    3.70 
  -7   2  -4  115.99   10.80 
  -7   2  -4  126.79   11.10 
   7  -2   4  103.69   10.40 
   7  -2   4  115.99   10.00 
  -8   2  -4    2.60    3.00 
   8  -2   4    2.00    3.20 
   8   1  -4   53.09    9.60 
  -8  -1   4   55.89   10.20 
   7   1  -4   -1.30    3.00 
   7   1  -4   -1.50    3.20 
  -7  -1   4   -2.70    2.40 
  -7  -1   4    9.30    5.50 
   6   1  -4  112.49   10.70 
   6   1  -4   92.39    9.30 
  -6  -1   4  110.99   10.80 
  -6  -1   4  107.89   11.30 
   5   1  -4   52.19    6.70 
   5   1  -4   51.29    7.10 
  -5  -1   4   63.89    7.50 
  -5  -1   4   56.49    7.20 
   4   1  -4    8.90    3.10 
   4   1  -4    5.10    2.20 
  -4  -1   4    4.20    2.60 
  -4  -1   4    9.10    3.20 
   3   1  -4 1248.08   51.29 
   3   1  -4 1117.59   50.19 
   3   1  -4 1299.97   49.99 
  -3  -1   4 1221.78   49.70 
  -3  -1   4 1233.68   48.50 
  -3  -1   4 1317.07   50.59 
   2   1  -4  207.98   12.30 
   2   1  -4  215.58   11.20 
   2   1  -4  232.48   12.80 
   2   1  -4  219.98   11.90 
  -2  -1   4  202.58   12.50 
  -2  -1   4  208.18   11.40 
  -2  -1   4  215.88   12.40 
   1   1  -4 4781.22  164.98 
   1   1  -4 4625.54  164.98 
   1   1  -4 4613.24  162.48 
   1   1  -4 4657.73  163.38 
  -1  -1   4 4577.24  162.68 
  -1  -1   4 4612.24  164.48 
  -1  -1   4 4778.72  165.18 
   0   1  -4 1225.28   46.90 
   0   1  -4 1371.76   49.70 
   0   1  -4 1276.57   47.30 
   0   1  -4 1353.26   49.70 
   0  -1   4 1331.67   47.50 
   0  -1   4 1307.17   49.70 
   0  -1   4 1268.87   48.80 
  -1   1  -4  838.52   31.00 
  -1   1  -4  882.31   33.90 
  -1   1  -4  831.32   33.30 
   1  -1   4  892.31   34.20 
   1  -1   4  877.41   31.80 
   1  -1   4  807.92   33.20 
  -2   1  -4 3165.38  122.39 
  -2   1  -4 3569.44  122.69 
  -2   1  -4 3457.15  120.99 
   2  -1   4 3340.97  123.09 
   2  -1   4 3555.24  120.49 
   2  -1   4 3647.03  123.09 
  -3   1  -4   16.20    2.70 
  -3   1  -4   17.90    3.10 
  -3   1  -4   16.40    3.30 
   3  -1   4   14.00    2.80 
   3  -1   4   13.90    2.80 
   3  -1   4   15.10    2.60 
  -4   1  -4  433.26   21.00 
  -4   1  -4  439.76   20.20 
  -4   1  -4  460.35   21.10 
   4  -1   4  432.26   20.10 
   4  -1   4  446.66   21.10 
   4  -1   4  472.25   21.20 
  -5   1  -4 1029.40   42.80 
  -5   1  -4 1012.50   41.50 
   5  -1   4 1012.60   41.80 
   5  -1   4 1026.50   42.00 
  -6   1  -4   92.79    8.70 
  -6   1  -4  112.19    9.80 
   6  -1   4   92.49    8.80 
   6  -1   4   93.49    8.20 
  -7   1  -4   44.10    7.20 
  -7   1  -4   55.19    7.40 
   7  -1   4   52.49    7.30 
   7  -1   4   44.50    5.80 
  -8   1  -4  257.97   18.70 
  -8   1  -4  278.07   19.40 
   8  -1   4  283.07   17.50 
   8  -1   4  254.17   18.60 
  -9   1  -4   19.50    6.50 
   9  -1   4   21.90    6.70 
   7   0  -4  226.58   17.60 
  -7   0   4  165.18   15.80 
   6   0  -4   38.60    7.00 
   6   0  -4   35.80    6.00 
  -6   0   4   41.00   12.10 
  -6   0   4   51.09    7.90 
   5   0  -4   56.09    6.80 
   5   0  -4   60.69    7.10 
  -5   0   4   56.99    7.30 
  -5   0   4   65.49    7.60 
   4   0  -4   73.59    7.20 
   4   0  -4   88.09    8.10 
  -4   0   4   79.89    7.80 
  -4   0   4   82.79    8.10 
   3   0  -4 2754.62  100.29 
   3   0  -4 2681.73  100.19 
  -3   0   4 2691.73  100.69 
  -3   0   4 2784.22  100.99 
  -3   0   4 2781.62  101.49 
   2   0  -4 2700.63  100.09 
   2   0  -4 2896.01   99.79 
   2   0  -4 2629.44   99.29 
   2   0  -4 2754.12   98.89 
  -2   0   4 2699.03   99.19 
  -2   0   4 2688.63   99.59 
  -2   0   4 2797.42  100.09 
   1   0  -4  316.77   15.50 
   1   0  -4  320.27   15.00 
   1   0  -4  351.96   16.10 
   1   0  -4  319.47   15.70 
  -1   0   4  326.97   15.20 
  -1   0   4  328.67   15.70 
  -1   0   4  350.66   16.20 
   0   0  -4 3042.90  112.19 
   0   0  -4 3258.57  113.59 
   0   0  -4 3102.99  112.89 
   0   0   4 3152.68  112.99 
   0   0   4 3311.67  113.89 
   0   0   4 3269.77  113.29 
  -1   0  -4  530.45   21.00 
  -1   0  -4  497.15   20.70 
  -1   0  -4  476.65   19.40 
   1   0   4  482.15   20.20 
   1   0   4  481.45   20.50 
   1   0   4  493.65   21.20 
  -2   0  -4  332.87   14.40 
  -2   0  -4  340.27   15.40 
  -2   0  -4  345.37   15.60 
   2   0   4  319.27   15.50 
   2   0   4  351.16   15.90 
   2   0   4  339.67   14.20 
  -3   0  -4  837.52   34.40 
  -3   0  -4  931.71   35.00 
  -3   0  -4  859.61   34.00 
   3   0   4  873.51   33.50 
   3   0   4  836.82   34.70 
   3   0   4  875.31   34.80 
  -4   0  -4  478.55   22.90 
  -4   0  -4  499.35   22.50 
  -4   0  -4  521.25   23.10 
   4   0   4  524.45   23.10 
   4   0   4  532.15   22.50 
   4   0   4  499.85   23.10 
  -5   0  -4   14.90    3.70 
  -5   0  -4   22.00    4.20 
  -5   0  -4   18.00    4.00 
   5   0   4   25.10    4.50 
   5   0   4   21.60    3.90 
   5   0   4   19.80    3.90 
  -6   0  -4  146.49   11.00 
  -6   0  -4  140.39   11.20 
   6   0   4  154.28   11.10 
   6   0   4  141.99   10.80 
  -7   0  -4   24.80    4.80 
  -7   0  -4   21.20    5.20 
   7   0   4   21.50    5.10 
   7   0   4   27.10    5.50 
  -8   0  -4  439.86   24.60 
  -8   0  -4  387.76   24.40 
   8   0   4  413.76   23.00 
   8   0   4  381.06   23.60 
  -9   0  -4   10.20    4.60 
   9   0   4   -0.30    3.80 
   7  -1  -4   14.40    8.20 
  -7   1   4    9.90    4.50 
   6  -1  -4  308.77   20.80 
   6  -1  -4  326.37   18.50 
  -6   1   4  320.27   20.60 
  -6   1   4  339.87   21.20 
   5  -1  -4   27.10    6.00 
   5  -1  -4   26.50    4.90 
  -5   1   4   27.10    5.60 
  -5   1   4   18.50    4.20 
   4  -1  -4 3971.00  146.19 
   4  -1  -4 4150.18  148.49 
  -4   1   4 4182.08  148.19 
  -4   1   4 4000.50  147.99 
   3  -1  -4  265.07   14.10 
   3  -1  -4  269.17   15.20 
  -3   1   4  273.07   15.20 
  -3   1   4  260.77   14.70 
   2  -1  -4 2079.19   78.29 
   2  -1  -4 2096.59   75.79 
   2  -1  -4 2212.18   75.99 
   2  -1  -4 2105.49   77.09 
  -2   1   4 1738.63   79.89 
  -2   1   4 2089.49   76.29 
  -2   1   4 2100.69   77.09 
   1  -1  -4   70.09    6.30 
   1  -1  -4   66.09    5.40 
   1  -1  -4   86.29    5.90 
   1  -1  -4   78.69    6.10 
  -1   1   4   77.69    6.10 
  -1   1   4   79.49    5.80 
  -1   1   4   78.79    6.00 
   0  -1  -4    4.10    1.50 
   0  -1  -4    3.30    1.50 
   0  -1  -4    2.30    1.10 
   0   1   4    2.00    1.20 
   0   1   4    2.20    1.20 
   0   1   4    2.10    1.10 
  -1  -1  -4 1779.72   67.59 
  -1  -1  -4 1818.12   67.59 
  -1  -1  -4 1890.41   67.69 
   1   1   4 1894.01   68.79 
   1   1   4 1902.31   68.19 
   1   1   4 1957.60   67.69 
  -2  -1  -4 2919.11  102.09 
  -2  -1  -4 2866.91  102.69 
  -2  -1  -4 2958.20  102.59 
   2   1   4 2768.82  102.79 
   2   1   4 2991.10  102.49 
   2   1   4 2834.72  102.89 
  -3  -1  -4 1290.87   49.60 
  -3  -1  -4 1341.77   50.09 
  -3  -1  -4 1356.96   50.19 
   3   1   4 1362.26   49.30 
   3   1   4 1294.97   49.99 
   3   1   4 1299.67   50.29 
  -4  -1  -4    3.40    1.40 
  -4  -1  -4    0.40    1.60 
  -4  -1  -4    2.70    1.40 
   4   1   4    2.80    1.50 
   4   1   4    1.30    1.50 
   4   1   4    4.50    1.80 
  -5  -1  -4  621.84   28.20 
  -5  -1  -4  663.23   28.90 
  -5  -1  -4  636.64   28.20 
   5   1   4  625.44   28.50 
   5   1   4  622.64   27.70 
   5   1   4  626.54   28.00 
  -6  -1  -4   37.80    6.30 
  -6  -1  -4   44.10    6.10 
   6   1   4   40.20    5.20 
   6   1   4   39.60    5.40 
   6   1   4   46.20    5.70 
  -7  -1  -4  246.68   16.00 
  -7  -1  -4  248.48   16.40 
   7   1   4  209.98   14.50 
   7   1   4  213.28   14.90 
  -8  -1  -4   48.50    8.20 
  -8  -1  -4   49.20    8.50 
   8   1   4   52.09    9.10 
   8   1   4   37.90    6.40 
  -9  -1  -4    4.40    9.00 
   9   1   4    3.30    3.70 
   9   1   4    2.50    4.00 
 -10  -1  -4   44.30    9.30 
  10   1   4   37.90    8.60 
   7  -2  -4   -4.30    3.30 
  -7   2   4   13.10    7.60 
   6  -2  -4  196.38   15.90 
  -6   2   4  191.18   14.90 
  -6   2   4  204.58   14.80 
   5  -2  -4  138.09    9.80 
   5  -2  -4  125.49   11.50 
  -5   2   4  135.99   11.10 
  -5   2   4  145.19   11.80 
   4  -2  -4    2.70    2.00 
   4  -2  -4    3.20    2.90 
  -4   2   4    4.20    2.70 
   3  -2  -4 3396.56  117.69 
   3  -2  -4 3444.46  121.29 
  -3   2   4 2812.72  118.49 
  -3   2   4 3517.55  120.19 
   2  -2  -4 2305.57   84.99 
   2  -2  -4 2414.86   87.99 
   2  -2  -4 2385.66   84.69 
   2  -2  -4 2351.66   89.59 
  -2   2   4 2433.26   86.59 
  -2   2   4 2275.87   85.89 
  -2   2   4 2342.77   87.99 
   1  -2  -4   81.79    5.30 
   1  -2  -4   75.99    6.50 
   1  -2  -4   82.19    5.40 
   1  -2  -4   77.29    7.20 
  -1   2   4   80.39    5.90 
  -1   2   4   75.29    5.60 
   0  -2  -4   -0.80    0.60 
   0  -2  -4    0.50    1.30 
   0  -2  -4   -0.60    0.60 
   0  -2  -4   -0.50    0.60 
   0   2   4    0.30    1.00 
   0   2   4   -0.20    0.50 
   0   2   4    0.60    0.70 
  -1  -2  -4 2613.14   91.39 
  -1  -2  -4 2459.55   93.19 
  -1  -2  -4 2651.63   91.79 
   1   2   4 2648.64   92.19 
   1   2   4 2573.14   94.19 
  -2  -2  -4 1707.53   61.19 
  -2  -2  -4 1656.03   60.39 
  -2  -2  -4 1686.93   60.59 
   2   2   4 1649.23   61.79 
   2   2   4 1720.53   60.89 
   2   2   4 1590.54   60.79 
  -3  -2  -4    9.90    2.10 
  -3  -2  -4    6.50    1.60 
  -3  -2  -4    4.40    1.90 
   3   2   4    9.80    2.30 
   3   2   4    4.00    1.50 
   3   2   4    5.20    1.80 
  -4  -2  -4   44.80    4.90 
  -4  -2  -4   54.09    5.00 
  -4  -2  -4   43.20    4.70 
   4   2   4   48.90    4.90 
   4   2   4   57.39    5.40 
   4   2   4   48.90    4.70 
  -5  -2  -4 6986.80  246.08 
  -5  -2  -4 6920.71  246.58 
  -5  -2  -4 6948.31  246.48 
   5   2   4 6815.02  246.48 
   5   2   4 7266.57  246.18 
   5   2   4 7053.29  245.78 
  -6  -2  -4   10.70    5.10 
  -6  -2  -4    8.60    3.00 
   6   2   4    7.80    3.10 
   6   2   4    5.90    2.90 
   6   2   4   11.60    3.40 
  -7  -2  -4   48.30   11.80 
  -7  -2  -4   53.09    7.80 
   7   2   4   49.70    6.50 
   7   2   4   45.90    6.20 
  -8  -2  -4  173.18   14.10 
   8   2   4  160.68   13.00 
   8   2   4  186.88   14.10 
  -9  -2  -4   38.70    8.20 
   9   2   4   40.40    7.50 
   9   2   4   46.90    8.20 
 -10  -2  -4   18.80    6.40 
  10   2   4   24.80    6.50 
   6  -3  -4   61.29   10.50 
  -6   3   4   71.79    9.10 
   5  -3  -4   11.80    4.30 
   5  -3  -4   17.10    3.10 
  -5   3   4   15.00    4.50 
  -5   3   4   21.70    4.70 
   4  -3  -4 1389.56   57.19 
  -4   3   4 1259.87   58.49 
  -4   3   4 1419.36   55.09 
   3  -3  -4   -2.20    2.00 
   3  -3  -4    1.30    1.20 
  -3   3   4    0.40    1.30 
   2  -3  -4  410.86   16.50 
   2  -3  -4  435.56   21.60 
  -2   3   4  397.76   18.80 
  -2   3   4  420.26   19.20 
   1  -3  -4 4090.29  140.69 
   1  -3  -4 4102.79  148.29 
   1  -3  -4 4301.17  147.29 
   1  -3  -4 3959.30  140.59 
  -1   3   4 4031.10  143.39 
  -1   3   4 3976.40  143.19 
   0  -3  -4 1878.71   73.89 
   0  -3  -4 1953.60   73.29 
   0  -3  -4 1952.00   67.99 
   0  -3  -4 1945.61   67.89 
   0   3   4 1948.61   70.19 
   0   3   4 1971.90   69.89 
   0   3   4 2000.20   74.29 
  -1  -3  -4 1604.44   62.49 
  -1  -3  -4 1672.63   58.79 
  -1  -3  -4 1722.43   58.59 
   1   3   4 1648.94   63.59 
   1   3   4 1641.34   59.89 
  -2  -3  -4 1093.69   38.90 
  -2  -3  -4 1005.40   40.50 
  -2  -3  -4 1054.59   38.80 
   2   3   4 1081.29   39.40 
   2   3   4 1007.70   39.40 
   2   3   4 1065.09   42.10 
  -3  -3  -4   25.40    3.00 
  -3  -3  -4   22.10    3.10 
  -3  -3  -4   19.70    2.70 
   3   3   4   23.10    3.80 
   3   3   4   25.20    3.10 
   3   3   4   21.50    3.00 
  -4  -3  -4   54.79    5.50 
  -4  -3  -4   65.29    5.50 
  -4  -3  -4   52.39    5.10 
   4   3   4   57.49    5.50 
   4   3   4   59.79    5.70 
   4   3   4   58.49    5.40 
  -5  -3  -4 1313.57   50.29 
  -5  -3  -4 1233.48   50.99 
  -5  -3  -4 1246.18   50.09 
   5   3   4 1272.77   50.69 
   5   3   4 1251.47   49.60 
   5   3   4 1284.17   49.90 
  -6  -3  -4 1049.89   43.80 
  -6  -3  -4 1038.30   43.90 
   6   3   4 1057.19   43.30 
   6   3   4 1008.30   43.90 
   6   3   4 1046.80   43.20 
  -7  -3  -4  253.27   17.60 
   7   3   4  309.37   18.60 
   7   3   4  338.87   18.60 
   7   3   4  302.17   18.10 
  -8  -3  -4  160.88   14.60 
   8   3   4  142.89   12.30 
   8   3   4  169.28   13.20 
  -9  -3  -4   -1.40    3.80 
   9   3   4    1.60    2.60 
   9   3   4   -3.20    3.20 
 -10  -3  -4   51.39    9.80 
  10   3   4   48.80    9.60 
  10   3   4   48.10    8.60 
   6  -4  -4   40.50    9.00 
  -6   4   4   30.60    6.40 
   5  -4  -4  101.49   11.00 
  -5   4   4  117.89   10.20 
  -5   4   4   97.79    9.90 
   4  -4  -4   56.99    7.80 
  -4   4   4   65.99    7.20 
  -4   4   4   62.89    6.90 
   3  -4  -4   -0.70    2.40 
  -3   4   4   -1.20    1.40 
  -3   4   4    3.60    1.80 
   2  -4  -4  234.48   15.20 
  -2   4   4  242.98   12.70 
  -2   4   4  230.28   12.30 
   1  -4  -4   -1.20    1.40 
  -1   4   4    1.60    1.10 
  -1   4   4    1.70    1.10 
   0  -4  -4  374.26   19.70 
   0  -4  -4  373.86   20.10 
   0   4   4  384.86   20.30 
   0   4   4  384.56   16.20 
   0   4   4  392.76   15.90 
  -1  -4  -4 1358.36   54.19 
   1   4   4 1405.66   56.09 
   1   4   4 1408.06   50.29 
   1   4   4 1367.86   49.90 
  -3  -4  -4 8676.53  299.57 
  -3  -4  -4 9633.04  300.27 
  -3  -4  -4 8471.85  301.97 
   3   4   4 7960.70  300.67 
  -4  -4  -4   11.40    2.50 
  -4  -4  -4   10.50    2.30 
  -4  -4  -4   18.40    3.50 
   4   4   4   19.90    3.60 
   4   4   4   15.60    3.30 
   4   4   4    7.60    2.40 
  -5  -4  -4  182.28   11.50 
   5   4   4  182.98   12.10 
   5   4   4  200.08   11.90 
   5   4   4  188.38   11.60 
  -6  -4  -4   15.80    4.10 
   6   4   4   34.30    5.70 
   6   4   4   16.10    3.90 
   6   4   4   19.20    4.10 
  -7  -4  -4   83.99    8.40 
   7   4   4   81.59    8.20 
   7   4   4   79.89    9.00 
   7   4   4   80.59    8.10 
  -8  -4  -4   88.09   10.00 
   8   4   4   97.49    9.60 
   8   4   4   86.69    9.00 
  -9  -4  -4  147.69   13.70 
   9   4   4  159.98   13.80 
   9   4   4  155.38   13.80 
 -10  -4  -4    7.80    5.30 
  10   4   4   16.60    6.50 
  10   4   4   16.40    5.00 
   5  -5  -4   26.50   11.50 
  -5   5   4   11.20    5.30 
  -5   5   4   15.50    5.10 
   4  -5  -4   24.00    6.00 
  -4   5   4   34.10    5.50 
  -4   5   4   31.90    5.50 
   3  -5  -4   12.10    4.40 
  -3   5   4   14.40    3.30 
  -3   5   4   14.30    3.30 
   2  -5  -4   12.60    3.80 
  -2   5   4   13.10    2.70 
  -2   5   4   13.90    2.80 
   1  -5  -4  328.27   19.20 
  -1   5   4  323.17   14.90 
  -1   5   4  355.76   15.00 
   0  -5  -4 1050.29   44.20 
   0   5   4 1050.09   38.30 
   0   5   4  997.70   37.90 
   0   5   4 1041.60   44.50 
  -1  -5  -4  303.57   16.80 
   1   5   4  326.87   18.00 
   1   5   4  285.67   12.30 
   1   5   4  288.87   12.50 
  -2  -5  -4   12.90    3.00 
   2   5   4   11.50    2.00 
   2   5   4    5.30    2.70 
   2   5   4   11.30    2.10 
  -3  -5  -4 1606.34   61.39 
  -3  -5  -4 1635.84   57.39 
  -3  -5  -4 1616.64   57.19 
   3   5   4 1635.04   59.39 
   3   5   4 1636.44   63.59 
   3   5   4 1556.84   59.69 
  -4  -5  -4   91.09    8.40 
   4   5   4  110.59    7.50 
   4   5   4   97.29    8.10 
   4   5   4   94.19    7.30 
  -5  -5  -4    1.60    1.70 
   5   5   4    0.00    1.50 
   5   5   4   -1.40    1.10 
   5   5   4   -2.50    1.60 
  -6  -5  -4  678.33   30.20 
   6   5   4  634.64   34.80 
   6   5   4  666.13   30.20 
   6   5   4  668.73   30.40 
  -7  -5  -4  196.58   16.60 
   7   5   4  231.98   15.70 
   7   5   4  227.58   15.00 
   7   5   4  233.58   14.90 
  -8  -5  -4    9.80    3.80 
   8   5   4    3.40    4.30 
   8   5   4   10.60    3.60 
   8   5   4    1.30    2.90 
  -9  -5  -4  323.87   21.60 
   9   5   4  316.97   20.70 
   9   5   4  327.57   20.70 
 -10  -5  -4   38.60   13.20 
  10   5   4   29.60    7.30 
  10   5   4   27.30    6.40 
   4  -6  -4    8.30    5.00 
  -4   6   4   15.10    3.80 
   3  -6  -4  134.59   12.70 
  -3   6   4  152.98   11.90 
  -3   6   4  141.09    9.80 
   2  -6  -4  747.63   36.10 
  -2   6   4  727.13   29.90 
  -2   6   4  747.43   30.00 
   1  -6  -4  841.22   39.70 
  -1   6   4  872.41   33.00 
  -1   6   4  882.01   33.20 
   0  -6  -4  126.69   10.80 
   0   6   4  143.49    6.90 
   0   6   4  129.59   11.20 
   0   6   4  121.39    6.80 
  -1  -6  -4  186.38   13.30 
   1   6   4  195.68   13.90 
   1   6   4  185.58    8.50 
   1   6   4  194.68    8.60 
   2   6   4   23.30    2.70 
   2   6   4   20.50    4.40 
   2   6   4   22.40    2.50 
   3   6   4  185.68   10.40 
   3   6   4  186.48   10.00 
   3   6   4  199.08   13.70 
  -4  -6  -4 1000.50   36.70 
   4   6   4  955.30   39.90 
   4   6   4 1035.20   39.70 
   4   6   4  990.30   42.60 
  -5  -6  -4  961.20   38.40 
   5   6   4 1024.90   41.70 
   5   6   4  947.21   40.00 
  -6  -6  -4  811.82   35.10 
   6   6   4  845.62   36.70 
   6   6   4  828.12   37.10 
   6   6   4  840.12   36.50 
  -7  -6  -4   14.40    3.90 
   7   6   4    8.40    4.10 
   7   6   4    7.80    3.00 
   7   6   4    2.60    3.10 
  -8  -6  -4  402.16   23.20 
   8   6   4  379.36   23.20 
   8   6   4  418.66   24.40 
   8   6   4  419.96   22.90 
  -9  -6  -4    3.10    3.90 
   9   6   4    1.10    4.20 
   9   6   4   14.40    4.80 
  10   6   4   41.10    8.30 
  10   6   4   33.40    7.50 
   4  -7  -4    3.80    4.60 
  -4   7   4   -0.10    2.70 
  -4   7   4   13.50    4.20 
   3  -7  -4   18.20    5.20 
  -3   7   4   15.20    3.60 
  -3   7   4   22.70    4.00 
   2  -7  -4   11.40    4.60 
  -2   7   4   13.40    2.80 
  -2   7   4    9.70    2.30 
   1  -7  -4   65.79    8.90 
  -1   7   4   61.59    4.50 
  -1   7   4   66.39    4.50 
   0  -7  -4  352.06   21.80 
   0   7   4  372.16   14.70 
   0   7   4  363.66   14.30 
  -1  -7  -4  497.45   25.80 
   1   7   4  448.16   25.60 
   1   7   4  468.15   18.30 
   1   7   4  475.75   18.20 
   2   7   4   16.20    4.40 
   2   7   4   19.90    2.40 
   2   7   4   18.00    2.70 
   3   7   4   89.49    6.60 
   3   7   4   92.69    6.30 
   3   7   4   79.99    8.80 
   4   7   4   44.20    7.30 
   4   7   4   50.09    5.30 
   4   7   4   40.50    4.70 
  -5  -7  -4    6.50    1.80 
   5   7   4    1.70    2.50 
   5   7   4    2.70    2.10 
   5   7   4    8.90    2.70 
  -6  -7  -4   20.30    3.90 
   6   7   4   17.90    4.70 
   6   7   4   16.80    6.10 
  -7  -7  -4  191.78   16.70 
   7   7   4  203.28   14.40 
   7   7   4  186.08   14.20 
   7   7   4  193.28   13.90 
  -8  -7  -4  129.49   11.40 
   8   7   4  126.29   12.90 
   8   7   4  129.59   11.60 
   8   7   4  119.19   11.20 
   9   7   4  164.78   14.10 
   9   7   4  153.78   14.00 
   2  -8  -4   29.70    7.00 
  -2   8   4   40.50    4.30 
  -2   8   4   40.10    4.20 
   1  -8  -4   10.50    4.50 
  -1   8   4    4.60    1.40 
  -1   8   4    2.40    1.50 
   0  -8  -4   19.30    5.80 
   0   8   4   24.40    1.90 
   0   8   4   25.00    2.00 
  -1  -8  -4  116.09   11.50 
   1   8   4  140.79   12.40 
   1   8   4  119.99    8.00 
   1   8   4  138.59    6.40 
  -2  -8  -4  174.68   14.20 
   2   8   4  191.28   15.20 
   2   8   4  189.58    9.40 
   3   8   4  245.08   12.70 
   3   8   4  232.78   12.10 
   3   8   4  258.07   17.70 
   4   8   4  198.58   12.10 
   4   8   4  212.58   11.90 
   4   8   4  204.58   15.50 
   5   8   4   30.50    6.50 
   5   8   4   30.00    5.20 
   5   8   4   27.60    4.80 
  -6  -8  -4   15.20    2.80 
   6   8   4   16.10    4.40 
   6   8   4   21.40    4.80 
   6   8   4   17.80    4.10 
  -7  -8  -4  223.88   13.50 
   7   8   4  236.18   16.20 
   7   8   4  210.88   15.50 
   7   8   4  215.38   15.00 
   8   8   4   17.30    4.90 
   8   8   4   16.80    5.80 
   9   8   4   14.20    5.30 
   9   8   4    9.80    5.00 
   1  -9  -4    3.20    4.70 
   0  -9  -4   52.29    9.00 
  -1  -9  -4   -2.60    3.20 
   1   9   4    3.40    3.40 
  -2  -9  -4   22.20    5.00 
   2   9   4   18.00    2.90 
   2   9   4   20.90    6.20 
   2   9   4   24.80    2.80 
   3   9   4    6.80    2.10 
   3   9   4    1.10    4.60 
   3   9   4    3.00    2.10 
   4   9   4  180.58   16.20 
   4   9   4  168.48   11.10 
   4   9   4  173.48   10.60 
   5   9   4  100.49    8.40 
   5   9   4   91.99   10.20 
   5   9   4  116.49    9.20 
   6   9   4    9.40    4.00 
   6   9   4   18.90    5.90 
   6   9   4   22.90    4.80 
   7   9   4   17.80    6.00 
   7   9   4   14.40    5.10 
   8   9   4   91.09   10.70 
   8   9   4   89.79   11.30 
  -1 -10  -4   -5.10    3.80 
  -2 -10  -4   16.20    6.20 
   2  10   4   23.50    6.50 
   2  10   4   16.50    2.40 
   2  10   4   17.40    2.60 
  -3 -10  -4   68.59    9.60 
   3  10   4   62.59    5.40 
   3  10   4   52.59    9.50 
   3  10   4   79.39    6.50 
   4  10   4   12.80    5.20 
   4  10   4    2.90    2.50 
   4  10   4    6.50    2.30 
   5  10   4   25.80    4.90 
   5  10   4   23.70    5.00 
   5  10   4   14.10    5.90 
   6  10   4   59.49    7.40 
   6  10   4   52.49    9.50 
   6  10   4   88.19    9.20 
   7  10   4   39.60    6.90 
   7  10   4   39.60    8.10 
   4   9  -5   28.90    7.30 
   3   9  -5   -3.80    3.40 
   2   9  -5   -3.40    2.80 
   1   9  -5  148.59   12.50 
   0   9  -5    7.10    3.10 
  -1   9  -5    5.40    3.60 
   5   8  -5    2.60    4.30 
   4   8  -5   -4.30    3.30 
   3   8  -5    2.40    4.20 
   3   8  -5    0.00    2.70 
   2   8  -5   95.59    9.90 
  -2  -8   5   96.99    9.80 
   1   8  -5    4.20    3.00 
   1   8  -5    0.30    3.20 
   0   8  -5   65.29    8.60 
   0   8  -5   65.79    7.80 
  -1   8  -5   47.80    6.60 
  -1   8  -5   41.80    7.00 
  -2   8  -5   36.90    6.40 
  -3   8  -5   77.79    8.70 
   6   7  -5    1.00    3.00 
   6   7  -5   -0.50    4.40 
   5   7  -5  179.68   10.30 
   5   7  -5  169.98   14.80 
   4   7  -5  364.56   22.60 
   4   7  -5  353.56   15.30 
  -4  -7   5  370.16   16.10 
  -4  -7   5  353.76   21.40 
   3   7  -5   71.79   15.20 
   3   7  -5   80.19    8.70 
   2   7  -5   12.90    3.70 
   2   7  -5   15.80    4.20 
  -2  -7   5   19.20    4.30 
   1   7  -5    5.30    2.60 
  -1  -7   5    4.00    2.50 
   0   7  -5   42.40    5.90 
   0   7  -5   38.20    6.50 
   0  -7   5   35.00    4.20 
  -1   7  -5   92.49    8.80 
  -1   7  -5  101.59    9.30 
  -2   7  -5   15.70    4.10 
  -2   7  -5   13.00    3.60 
  -3   7  -5   41.40    6.50 
  -3   7  -5   31.90    6.00 
   3  -7   5   41.40    3.70 
  -4   7  -5   36.10    6.30 
   4  -7   5   43.60    5.10 
   7   6  -5   -0.60    3.90 
   7   6  -5    0.60    3.50 
   6   6  -5   28.10    5.60 
   6   6  -5   15.40    6.40 
  -6  -6   5   13.00    6.20 
   5   6  -5    0.30    2.20 
   5   6  -5    3.40    4.40 
   5   6  -5   -4.80    3.90 
  -5  -6   5    3.90    4.30 
  -5  -6   5    3.70    3.00 
   4   6  -5    9.80    2.40 
   4   6  -5    8.40    4.70 
   4   6  -5    4.30    3.00 
  -4  -6   5   12.10    4.30 
  -4  -6   5    5.50    2.60 
   3   6  -5   39.30    6.80 
   3   6  -5   40.90    7.40 
   3   6  -5   39.50    3.00 
  -3  -6   5   41.60    5.80 
   2   6  -5 1132.39   48.80 
   2   6  -5 1116.09   48.50 
  -2  -6   5 1175.28   47.70 
   1   6  -5  517.25   26.00 
   1   6  -5  518.65   26.00 
  -1  -6   5  548.15   25.00 
   0   6  -5   61.59    7.00 
   0  -6   5   60.89    6.00 
  -1   6  -5    7.20    2.70 
  -1   6  -5   12.60    4.70 
  -2   6  -5   75.59    7.30 
  -2   6  -5   60.19    6.60 
   2  -6   5   56.59    4.90 
  -3   6  -5   18.20    4.10 
  -3   6  -5   15.70    3.70 
   3  -6   5   24.10    3.80 
   3  -6   5   17.20    2.70 
  -4   6  -5    9.60    3.80 
  -4   6  -5    8.70    3.60 
  -4   6  -5    8.00    3.10 
   4  -6   5   10.80    4.10 
  -5   6  -5   53.09    6.90 
   5  -6   5   42.10    5.70 
   7   5  -5  199.28   17.20 
   7   5  -5  207.58   15.60 
  -7  -5   5  223.88   18.90 
   6   5  -5   -2.50    3.30 
   6   5  -5    3.90    3.30 
  -6  -5   5    9.90    4.60 
   5   5  -5  114.09   11.70 
   5   5  -5   95.79    8.50 
  -5  -5   5   84.59    9.90 
   4   5  -5   89.19    7.10 
   4   5  -5  100.29   10.20 
   4   5  -5  105.19   10.10 
  -4  -5   5   80.49    8.90 
  -4  -5   5  103.99    8.60 
   3   5  -5   28.30    3.20 
   3   5  -5   26.20    5.60 
   3   5  -5   32.70    3.70 
  -3  -5   5   33.80    5.70 
  -3  -5   5   36.70    3.70 
   2   5  -5  468.95   17.20 
   2   5  -5  466.25   24.30 
   2   5  -5  474.45   17.60 
   2   5  -5  477.45   24.60 
  -2  -5   5  484.65   24.10 
   1   5  -5  485.95   24.20 
   1   5  -5  476.95   24.10 
  -1  -5   5  486.15   23.70 
   0   5  -5 1485.45   59.39 
   0   5  -5 1449.15   59.09 
   0  -5   5 1576.84   58.79 
  -1   5  -5  155.78   10.80 
   1  -5   5  153.18   10.10 
  -2   5  -5  332.07   17.40 
  -2   5  -5  324.87   17.70 
   2  -5   5  325.97   16.30 
   2  -5   5  319.57   11.90 
  -3   5  -5  325.87   17.50 
  -3   5  -5  309.67   14.20 
   3  -5   5  338.77   15.30 
   3  -5   5  286.57   13.90 
   3  -5   5  317.07   15.60 
  -4   5  -5  456.95   23.10 
  -4   5  -5  473.65   23.40 
   4  -5   5  455.85   22.90 
   4  -5   5  444.26   22.20 
   4  -5   5  434.96   20.30 
  -5   5  -5   33.50    5.90 
  -5   5  -5   35.00    6.50 
   5  -5   5   27.90    5.00 
  -6   5  -5    6.10    3.90 
   6  -5   5    9.40    4.30 
   7   4  -5   -0.70    4.40 
   7   4  -5    0.60    3.80 
  -7  -4   5    4.70    5.10 
   6   4  -5   25.40    6.00 
   6   4  -5   29.80    6.00 
  -6  -4   5   27.30    6.30 
   5   4  -5  696.53   35.40 
   5   4  -5  705.53   32.50 
  -5  -4   5  724.23   35.90 
   4   4  -5    9.20    3.80 
   4   4  -5   11.00    4.20 
   4   4  -5    3.90    2.20 
  -4  -4   5   -2.60    2.50 
  -4  -4   5    9.60    2.90 
   3   4  -5 2589.04   93.29 
   3   4  -5 2701.93   98.99 
  -3  -4   5 2388.66   97.59 
  -3  -4   5 2650.63   93.39 
   2   4  -5  486.95   19.70 
   2   4  -5  469.35   24.30 
   2   4  -5  479.05   24.30 
   2   4  -5  479.65   19.30 
  -2  -4   5  492.55   24.40 
  -2  -4   5  483.55   19.40 
   1   4  -5  710.23   32.20 
   1   4  -5  722.63   32.20 
  -1  -4   5  729.13   32.10 
   0   4  -5    9.90    3.10 
   0   4  -5   -0.50    1.50 
   0  -4   5   -1.00    1.50 
  -1   4  -5   14.80    3.30 
  -1   4  -5   10.90    2.80 
   1  -4   5   14.60    3.10 
  -2   4  -5  899.31   33.00 
  -2   4  -5  872.61   37.60 
  -2   4  -5  866.01   38.00 
   2  -4   5  978.40   38.00 
   2  -4   5  956.50   33.60 
   2  -4   5  938.51   33.20 
  -3   4  -5   12.10    2.40 
  -3   4  -5   10.40    3.20 
   3  -4   5    8.90    2.00 
   3  -4   5   14.10    3.30 
  -4   4  -5    9.50    2.80 
  -4   4  -5    8.30    2.60 
   4  -4   5    9.10    2.60 
   4  -4   5   14.10    3.30 
  -5   4  -5  829.42   36.60 
   5  -4   5  776.22   34.50 
   5  -4   5  792.52   33.90 
  -6   4  -5  220.88   15.10 
  -6   4  -5  192.38   14.90 
   6  -4   5  194.68   18.70 
   6  -4   5  226.38   14.80 
  -7   4  -5    9.60    4.80 
   7  -4   5   10.70    4.70 
   7   3  -5    4.90    4.10 
  -7  -3   5    8.40    5.00 
   6   3  -5   42.70    7.70 
   6   3  -5   26.70    5.80 
  -6  -3   5   47.20    7.90 
   5   3  -5   92.39    8.90 
   5   3  -5   89.79    9.30 
  -5  -3   5   99.69   10.40 
   4   3  -5   38.90    4.90 
   4   3  -5   30.90    6.00 
   4   3  -5   26.50    5.60 
  -4  -3   5   29.60    5.00 
  -4  -3   5   24.00    4.90 
   3   3  -5 2171.58   82.79 
   3   3  -5 2156.38   78.79 
  -3  -3   5 2215.18   82.59 
  -3  -3   5 2219.18   78.99 
  -3  -3   5 1921.61   81.69 
   2   3  -5 1066.29   40.90 
   2   3  -5 1038.90   41.40 
   2   3  -5 1101.89   45.50 
   2   3  -5 1129.29   45.70 
  -2  -3   5 1135.29   45.00 
  -2  -3   5 1066.99   41.10 
  -2  -3   5 1076.09   45.50 
   1   3  -5  421.06   16.80 
   1   3  -5  409.76   21.00 
   1   3  -5  399.06   20.70 
   1   3  -5  410.96   16.40 
  -1  -3   5  437.06   20.30 
  -1  -3   5  425.86   21.10 
   0   3  -5  353.16   18.30 
   0   3  -5  338.17   17.80 
   0  -3   5  350.66   17.10 
   0  -3   5  352.36   17.90 
  -1   3  -5  386.66   18.50 
  -1   3  -5  382.16   18.80 
   1  -3   5  355.86   18.00 
  -2   3  -5  422.26   20.00 
  -2   3  -5  431.66   20.50 
  -2   3  -5  433.96   16.50 
   2  -3   5  413.26   20.30 
   2  -3   5  421.26   16.30 
  -3   3  -5   21.30    4.10 
  -3   3  -5   33.00    5.20 
  -3   3  -5   22.50    3.00 
   3  -3   5   23.00    2.90 
   3  -3   5   25.60    4.30 
  -4   3  -5 4909.21  179.48 
  -4   3  -5 5120.59  179.98 
  -4   3  -5 5041.70  176.98 
   4  -3   5 4909.01  179.28 
   4  -3   5 5172.28  177.48 
  -5   3  -5  124.79   10.20 
  -5   3  -5  128.39   10.20 
   5  -3   5  144.89   10.20 
   5  -3   5  141.29   10.30 
  -6   3  -5   29.30    6.30 
  -6   3  -5   29.80    5.60 
   6  -3   5   34.10    5.90 
   6  -3   5   27.70    5.60 
  -7   3  -5    8.70    3.50 
  -7   3  -5    4.50    3.40 
   7  -3   5    7.60    3.90 
  -8   3  -5  203.28   17.20 
   8  -3   5  230.78   17.40 
   7   2  -5   44.30   10.90 
   7   2  -5   59.89   10.10 
  -7  -2   5   59.19    9.20 
   6   2  -5   36.30    7.00 
   6   2  -5   45.80    7.80 
  -6  -2   5   36.90    6.90 
   5   2  -5    8.10    3.60 
   5   2  -5    3.40    2.50 
  -5  -2   5    3.80    3.60 
  -5  -2   5   10.60    3.70 
   4   2  -5  162.98   11.60 
   4   2  -5  154.48   12.30 
  -4  -2   5  169.98   13.10 
  -4  -2   5  183.78   13.50 
   3   2  -5  136.29   10.60 
   3   2  -5  130.99    9.90 
   3   2  -5  130.09    9.80 
   3   2  -5  155.08   11.30 
  -3  -2   5  133.89    9.40 
  -3  -2   5  127.19   10.70 
  -3  -2   5  143.09   10.80 
   2   2  -5 1867.61   69.09 
   2   2  -5 1853.31   67.89 
   2   2  -5 1870.71   71.69 
   2   2  -5 1802.72   71.29 
  -2  -2   5 1802.12   68.19 
  -2  -2   5 1900.91   71.19 
  -2  -2   5 1901.71   71.99 
   1   2  -5 2136.39   76.89 
   1   2  -5 2207.38   81.39 
   1   2  -5 2085.99   77.69 
   1   2  -5 2188.88   80.99 
  -1  -2   5 2162.08   80.39 
  -1  -2   5 2189.58   81.39 
   0   2  -5 1120.19   42.00 
   0   2  -5 1124.49   42.00 
   0   2  -5 1194.88   46.60 
   0   2  -5 1207.08   46.70 
   0  -2   5 1151.08   46.40 
   0  -2   5 1231.58   45.90 
  -1   2  -5  133.19    8.40 
  -1   2  -5  102.19    5.30 
  -1   2  -5  105.99    8.00 
   1  -2   5   98.49   11.40 
   1  -2   5  112.19    5.80 
   1  -2   5  113.19    7.90 
  -2   2  -5 1175.58   46.40 
  -2   2  -5 1145.59   43.40 
  -2   2  -5 1233.58   46.20 
   2  -2   5 1197.98   46.70 
   2  -2   5 1168.78   42.80 
   2  -2   5 1181.58   46.90 
  -3   2  -5   22.80    3.10 
  -3   2  -5   26.20    4.50 
  -3   2  -5   30.40    4.20 
   3  -2   5   38.40    3.50 
   3  -2   5   36.70    4.50 
   3  -2   5   25.30    4.30 
  -4   2  -5  263.77   13.80 
  -4   2  -5  265.17   15.40 
  -4   2  -5  284.27   15.50 
   4  -2   5  277.27   15.50 
   4  -2   5  272.47   14.00 
  -5   2  -5    3.80    2.50 
  -5   2  -5    1.60    2.60 
  -5   2  -5    5.20    2.90 
   5  -2   5    4.80    2.80 
   5  -2   5   -1.30    1.80 
  -6   2  -5  219.78   15.50 
  -6   2  -5  264.27   16.00 
   6  -2   5  239.28   15.10 
   6  -2   5  252.07   15.30 
  -7   2  -5   42.70    7.30 
  -7   2  -5   47.50    8.00 
   7  -2   5   51.49    6.90 
  -8   2  -5    9.20    4.90 
   8  -2   5   14.80    4.90 
   7   1  -5  118.99   12.40 
  -7  -1   5  112.29   12.60 
   6   1  -5  374.66   22.10 
   6   1  -5  354.46   21.80 
  -6  -1   5  350.76   22.70 
  -6  -1   5  343.47   22.50 
   5   1  -5  424.56   24.30 
   5   1  -5  503.45   25.40 
  -5  -1   5  477.55   26.20 
  -5  -1   5  465.65   25.70 
   4   1  -5  151.78   10.90 
   4   1  -5  132.69   10.60 
  -4  -1   5  134.89   11.50 
  -4  -1   5  129.89   11.50 
   3   1  -5   20.80    3.90 
   3   1  -5   14.10    3.80 
   3   1  -5   20.80    4.60 
   3   1  -5   18.50    4.10 
  -3  -1   5   26.20    4.90 
  -3  -1   5   15.90    5.20 
  -3  -1   5   20.30    4.00 
   2   1  -5   39.20    5.10 
   2   1  -5   42.30    4.90 
   2   1  -5   44.60    4.50 
   2   1  -5   47.40    5.50 
  -2  -1   5   46.30    5.60 
  -2  -1   5   43.30    4.70 
  -2  -1   5   37.90    5.00 
   1   1  -5 2072.39   76.19 
   1   1  -5 2045.40   77.59 
   1   1  -5 2049.59   75.09 
   1   1  -5 2146.49   78.09 
  -1  -1   5 2128.09   77.49 
  -1  -1   5 2024.40   77.79 
   0   1  -5  463.25   22.10 
   0   1  -5  470.35   20.10 
   0   1  -5  504.15   22.50 
   0   1  -5  472.95   19.80 
   0  -1   5  521.45   22.90 
   0  -1   5  509.15   21.90 
   0  -1   5  487.75   20.40 
  -1   1  -5 5670.43  189.98 
  -1   1  -5 5053.59  188.98 
  -1   1  -5 5255.37  186.08 
   1  -1   5 5183.28  188.88 
   1  -1   5 5828.02  190.38 
   1  -1   5 5310.47  187.28 
  -2   1  -5  158.08    9.60 
  -2   1  -5  173.58   10.20 
  -2   1  -5  149.79    8.10 
   2  -1   5  158.98   10.20 
   2  -1   5  164.38   10.00 
   2  -1   5  164.08    8.10 
  -3   1  -5   13.80    3.20 
  -3   1  -5   18.00    2.90 
  -3   1  -5   10.80    2.70 
   3  -1   5   17.00    3.30 
   3  -1   5   10.90    2.20 
   3  -1   5   13.10    2.80 
  -4   1  -5  614.74   26.90 
  -4   1  -5  582.94   25.40 
   4  -1   5  593.84   25.30 
   4  -1   5  539.55   32.60 
   4  -1   5  615.84   27.10 
  -5   1  -5  986.90   41.40 
  -5   1  -5  956.80   40.80 
  -5   1  -5  952.40   39.80 
   5  -1   5  972.40   39.90 
   5  -1   5  991.60   41.00 
  -6   1  -5  669.63   33.10 
  -6   1  -5  717.43   33.20 
   6  -1   5  768.32   33.20 
   6  -1   5  708.83   32.30 
  -7   1  -5   70.69    8.20 
  -7   1  -5   62.39    8.60 
   7  -1   5   71.79    7.90 
   7  -1   5   64.99    7.80 
  -8   1  -5   17.40    5.90 
  -8   1  -5   22.30    6.00 
   8  -1   5   15.20    4.80 
   8  -1   5   22.40    5.30 
  -9   1  -5   74.69   10.20 
   9  -1   5   56.19    9.90 
   7   0  -5   44.80   14.30 
  -7   0   5   45.60    9.10 
   6   0  -5   43.90    7.00 
   6   0  -5   46.00    8.20 
  -6   0   5   36.00    6.90 
  -6   0   5   28.60    7.40 
   5   0  -5  257.37   16.90 
   5   0  -5  235.58   15.80 
  -5   0   5  281.77   18.10 
  -5   0   5  228.28   16.40 
   4   0  -5 1323.27   53.69 
   4   0  -5 1341.67   53.69 
  -4   0   5 1315.87   54.89 
  -4   0   5 1272.27   54.19 
   3   0  -5    6.00    2.60 
   3   0  -5    5.50    2.50 
  -3   0   5   11.70    3.30 
  -3   0   5   17.10    4.10 
   2   0  -5  582.24   26.80 
   2   0  -5  609.14   26.40 
   2   0  -5  616.64   27.80 
   2   0  -5  592.94   27.00 
  -2   0   5  634.74   30.60 
  -2   0   5  587.44   26.50 
  -2   0   5  614.04   27.80 
   1   0  -5 4242.68  141.09 
   1   0  -5 3374.46  149.09 
   1   0  -5 3971.60  140.79 
   1   0  -5 4157.08  139.79 
  -1   0   5 4070.99  141.29 
  -1   0   5 3739.43  140.99 
   0   0  -5 1024.60   39.90 
   0   0  -5  972.50   38.50 
   0   0  -5 1006.60   39.20 
   0   0  -5  989.70   39.80 
   0   0   5 1017.00   39.30 
   0   0   5 1021.90   40.30 
   0   0   5  989.60   43.60 
  -1   0  -5  244.98   11.70 
  -1   0  -5  252.67   13.00 
  -1   0  -5  248.18   13.00 
   1   0   5  261.07   12.90 
   1   0   5  265.67   13.70 
   1   0   5  254.57   12.70 
  -2   0  -5  481.15   20.70 
  -2   0  -5  457.05   19.20 
  -2   0  -5  458.35   20.70 
   2   0   5  444.66   21.00 
   2   0   5  482.35   19.80 
   2   0   5  475.15   21.00 
  -3   0  -5 4660.53  155.68 
  -3   0  -5 3910.01  154.78 
  -3   0  -5 4274.97  154.08 
   3   0   5 4614.74  153.78 
   3   0   5 4615.64  156.18 
   3   0   5 4217.28  155.78 
  -4   0  -5    4.90    2.20 
  -4   0  -5    5.00    2.20 
  -4   0  -5    7.30    2.50 
   4   0   5    7.10    2.60 
   4   0   5    6.30    2.10 
  -5   0  -5   78.49    7.50 
  -5   0  -5   80.19    7.00 
  -5   0  -5   65.99    6.90 
   5   0   5   74.69    7.40 
   5   0   5   75.59    7.00 
   5   0   5   68.79    6.60 
  -6   0  -5 1639.24   65.49 
  -6   0  -5 1690.53   65.29 
   6   0   5 1584.74   64.29 
   6   0   5 1626.44   63.99 
  -7   0  -5   56.69    7.00 
  -7   0  -5   58.59    7.30 
   7   0   5   41.40    5.80 
   7   0   5   50.69    6.90 
  -8   0  -5   21.90    6.00 
  -8   0  -5   16.70    5.00 
   8   0   5   14.50    4.70 
   8   0   5   15.80    4.10 
  -9   0  -5    0.50    4.30 
   9   0   5    8.20    4.70 
   7  -1  -5    0.80    4.10 
  -7   1   5   -5.90    3.40 
   6  -1  -5    2.60    3.00 
  -6   1   5   -2.10    4.30 
  -6   1   5    1.30    3.30 
   5  -1  -5    6.00    3.30 
   5  -1  -5    6.80    3.00 
  -5   1   5   12.10    4.30 
  -5   1   5    6.20    3.40 
   4  -1  -5   83.69    8.50 
   4  -1  -5   90.59    8.10 
  -4   1   5   79.09    8.30 
  -4   1   5   96.89    9.10 
   3  -1  -5 3172.08  119.09 
   3  -1  -5 3193.58  117.99 
  -3   1   5 3283.07  119.39 
  -3   1   5 3342.87  120.09 
   2  -1  -5 1778.22   66.99 
   2  -1  -5 1779.62   66.19 
   2  -1  -5 1735.13   68.49 
  -2   1   5 1710.03   66.99 
  -2   1   5 1746.53   67.09 
  -2   1   5 1745.33   66.59 
   1  -1  -5  143.19    9.30 
   1  -1  -5  145.49    9.00 
   1  -1  -5  123.59    9.60 
   1  -1  -5  138.39    9.00 
  -1   1   5  141.49    9.30 
  -1   1   5  131.19    9.00 
   0  -1  -5 1284.37   48.80 
   0  -1  -5 1235.08   48.10 
   0  -1  -5 1281.47   48.60 
   0  -1  -5 1262.77   49.40 
   0   1   5 1243.38   48.70 
   0   1   5 1300.27   49.60 
   0   1   5 1261.57   48.20 
  -1  -1  -5  132.29    8.30 
  -1  -1  -5  140.19    8.40 
  -1  -1  -5  131.79    8.10 
   1   1   5  129.69    8.00 
   1   1   5  135.59    8.90 
   1   1   5  139.59    8.80 
  -2  -1  -5 1956.30   69.19 
  -2  -1  -5 1888.21   69.79 
  -2  -1  -5 1806.12   70.59 
   2   1   5 1965.80   70.19 
   2   1   5 1850.11   69.99 
   2   1   5 1950.40   70.59 
  -3  -1  -5  203.68   11.30 
  -3  -1  -5  205.68   11.10 
  -3  -1  -5  197.98   10.70 
   3   1   5  188.58   11.20 
   3   1   5  197.78   11.50 
   3   1   5  197.98   10.50 
  -4  -1  -5 1025.10   40.70 
  -4  -1  -5  992.00   40.40 
  -4  -1  -5  993.40   40.20 
   4   1   5  939.81   40.50 
   4   1   5 1057.09   40.90 
   4   1   5 1016.00   39.50 
  -5  -1  -5   -0.50    1.70 
  -5  -1  -5    1.70    1.90 
  -5  -1  -5   -0.80    1.40 
   5   1   5    1.20    1.70 
   5   1   5    0.60    1.50 
   5   1   5   -0.50    0.90 
  -6  -1  -5 1204.68   48.80 
  -6  -1  -5 1204.88   48.10 
   6   1   5  978.30   46.40 
   6   1   5 1178.18   48.40 
   6   1   5 1180.28   47.30 
  -7  -1  -5   32.00    6.70 
  -7  -1  -5   26.60    6.00 
   7   1   5   42.60    6.90 
   7   1   5   25.00    5.20 
  -8  -1  -5    0.30    3.00 
  -8  -1  -5    1.50    4.00 
   8   1   5    9.30    3.40 
   8   1   5   13.90    4.10 
  -9  -1  -5  381.76   27.20 
   9   1   5  418.66   25.20 
   9   1   5  433.16   25.10 
 -10  -1  -5   22.30    7.00 
  10   1   5   17.40    5.70 
   6  -2  -5   12.10    5.50 
  -6   2   5    4.80    3.60 
   5  -2  -5   48.70    6.20 
   5  -2  -5   59.39    7.90 
  -5   2   5   58.19    7.50 
  -5   2   5   56.59    7.20 
   4  -2  -5  249.48   16.90 
   4  -2  -5  271.57   14.60 
  -4   2   5  270.77   16.80 
  -4   2   5  270.57   16.40 
   3  -2  -5   56.39    6.60 
   3  -2  -5   57.29    5.80 
  -3   2   5   66.99    6.80 
   2  -2  -5   95.09    7.00 
   2  -2  -5  114.69    8.90 
  -2   2   5   91.39    7.70 
   1  -2  -5 2799.02  102.59 
   1  -2  -5 2763.62   98.09 
   1  -2  -5 2731.53   97.89 
   1  -2  -5 2693.23  100.49 
  -1   2   5 2669.63   99.09 
   0  -2  -5 2685.03   96.39 
   0  -2  -5 2603.04   96.99 
   0  -2  -5 2654.03   94.09 
   0  -2  -5 2366.56   98.09 
   0   2   5 2750.02   95.09 
   0   2   5 2673.03   97.19 
  -1  -2  -5 1169.08   45.90 
  -1  -2  -5 1144.79   44.30 
  -1  -2  -5 1167.28   44.10 
   1   2   5 1203.28   47.00 
   1   2   5 1187.48   45.10 
  -2  -2  -5    3.40    1.50 
  -2  -2  -5    0.20    1.10 
  -2  -2  -5    3.80    1.40 
   2   2   5    3.20    1.70 
   2   2   5    1.30    1.10 
   2   2   5    0.80    1.20 
  -3  -2  -5 2794.52   99.99 
  -3  -2  -5 2830.82  100.29 
  -3  -2  -5 2666.83   99.99 
   3   2   5 2901.61  100.79 
   3   2   5 2747.82  100.29 
   3   2   5 2766.62  100.69 
  -4  -2  -5  213.38   12.40 
  -4  -2  -5  214.18   12.40 
  -4  -2  -5  211.58   12.20 
   4   2   5  235.68   12.70 
   4   2   5  224.78   12.90 
   4   2   5  220.88   12.40 
  -5  -2  -5   56.89    6.10 
  -5  -2  -5   54.79    5.70 
  -5  -2  -5   66.19    6.30 
   5   2   5   61.69    5.90 
   5   2   5   49.60    6.30 
   5   2   5   57.89    6.20 
  -6  -2  -5   22.30    4.90 
  -6  -2  -5   11.90    3.40 
   6   2   5   12.00    3.40 
   6   2   5   16.30    3.90 
   6   2   5   17.80    6.90 
  -7  -2  -5  237.88   15.70 
  -7  -2  -5  250.77   16.20 
   7   2   5  192.98   14.30 
   7   2   5  214.08   14.40 
  -8  -2  -5   71.49    9.50 
   8   2   5   71.39    8.50 
   8   2   5   82.59    8.90 
  -9  -2  -5  153.58   13.80 
   9   2   5  124.89   12.40 
   9   2   5  134.29   12.70 
 -10  -2  -5   20.90    6.50 
  10   2   5   21.40    7.10 
   6  -3  -5  292.07   21.60 
  -6   3   5  279.57   19.90 
   5  -3  -5  294.77   19.90 
  -5   3   5  278.57   18.50 
  -5   3   5  260.67   17.90 
   4  -3  -5    3.90    2.70 
   4  -3  -5   12.00    2.70 
  -4   3   5   10.80    3.00 
  -4   3   5   11.60    3.70 
   3  -3  -5 1654.13   61.69 
   3  -3  -5 1775.22   68.49 
  -3   3   5 1679.33   65.89 
  -3   3   5 1664.33   65.49 
   2  -3  -5   27.10    5.50 
   2  -3  -5   36.00    3.40 
  -2   3   5   30.60    4.20 
  -2   3   5   35.80    4.30 
   1  -3  -5  450.65   18.80 
   1  -3  -5  491.35   23.70 
  -1   3   5  476.95   21.30 
   0  -3  -5    2.70    1.10 
   0  -3  -5    3.50    2.00 
   0  -3  -5    2.30    1.00 
   0  -3  -5    2.40    1.50 
   0   3   5    2.30    1.80 
   0   3   5    2.30    1.20 
   0   3   5    0.30    1.00 
  -1  -3  -5 2244.88   76.59 
  -1  -3  -5 2147.59   80.59 
   1   3   5 2156.18   77.39 
   1   3   5 2049.29   87.09 
   1   3   5 2146.39   80.49 
  -2  -3  -5  819.12   37.30 
  -2  -3  -5  787.62   37.40 
  -2  -3  -5  892.41   33.00 
   2   3   5  877.41   33.60 
   2   3   5  860.31   36.20 
  -3  -3  -5 4233.98  154.98 
  -3  -3  -5 4450.75  155.78 
  -3  -3  -5 4446.75  153.98 
   3   3   5 4572.44  154.88 
   3   3   5 4210.28  154.88 
  -4  -3  -5  214.68   12.40 
  -4  -3  -5  213.78   11.80 
  -4  -3  -5  197.88   11.70 
   4   3   5  207.38   12.30 
   4   3   5  215.48   12.20 
   4   3   5  222.08   12.20 
  -5  -3  -5 2324.47   81.39 
  -5  -3  -5 2159.18   80.89 
   5   3   5 2104.79   81.39 
   5   3   5 2220.48   80.59 
   5   3   5 1958.30   84.79 
  -6  -3  -5    8.20    3.00 
   6   3   5   10.60    3.30 
   6   3   5   19.00    4.20 
   6   3   5    6.20    3.20 
  -7  -3  -5    2.70    2.50 
   7   3   5    2.20    3.00 
   7   3   5    4.30    2.70 
   7   3   5    4.00    2.40 
  -8  -3  -5   69.29    8.80 
   8   3   5   62.29    7.80 
   8   3   5   56.69    9.00 
  -9  -3  -5    9.60    4.70 
   9   3   5   13.30    4.70 
   9   3   5   12.10    4.30 
 -10  -3  -5   37.60    8.60 
  10   3   5   40.90    8.40 
  10   3   5   67.79    9.10 
   5  -4  -5    2.00    4.00 
  -5   4   5    1.80    4.00 
  -5   4   5    5.90    2.90 
   4  -4  -5   15.50    5.30 
  -4   4   5   13.30    4.20 
  -4   4   5    6.20    3.20 
   3  -4  -5  383.96   22.70 
  -3   4   5  397.06   20.20 
  -3   4   5  400.86   20.40 
   2  -4  -5  177.08   13.60 
  -2   4   5  195.38   11.80 
  -2   4   5  193.28   11.40 
   1  -4  -5  148.99   11.70 
  -1   4   5  158.98    9.30 
  -1   4   5  153.08    9.40 
   0  -4  -5  963.20   40.00 
   0   4   5  891.71   35.10 
   0   4   5  901.71   35.50 
   0   4   5  890.71   40.00 
  -1  -4  -5  426.16   21.80 
   1   4   5  421.56   22.30 
   1   4   5  432.06   17.90 
   1   4   5  418.96   18.40 
  -2  -4  -5  532.35   24.20 
  -2  -4  -5  519.35   20.60 
  -2  -4  -5  545.25   20.90 
   2   4   5  562.84   26.40 
   2   4   5  538.85   22.20 
   2   4   5  498.75   22.80 
  -3  -4  -5 2962.90  102.09 
  -3  -4  -5 2830.92  101.59 
  -3  -4  -5 2868.31  104.29 
   3   4   5 2910.81  106.19 
   3   4   5 2721.63  103.09 
   3   4   5 2922.51  102.99 
  -4  -4  -5    7.40    2.20 
  -4  -4  -5    1.80    1.20 
  -4  -4  -5    2.30    2.00 
   4   4   5    2.90    1.40 
   4   4   5    2.60    1.50 
   4   4   5    4.40    2.30 
  -5  -4  -5  120.99    8.90 
   5   4   5  129.89    9.80 
   5   4   5  126.29    9.30 
   5   4   5  125.49    9.30 
  -6  -4  -5   38.00    5.10 
   6   4   5   51.39    6.20 
   6   4   5   37.80    5.20 
   6   4   5   40.30    5.40 
  -7  -4  -5  656.43   34.00 
   7   4   5  779.72   34.50 
   7   4   5  759.82   35.50 
   7   4   5  789.42   34.80 
  -8  -4  -5  309.57   20.40 
   8   4   5  344.87   20.40 
   8   4   5  349.47   20.60 
  -9  -4  -5   35.80    8.80 
   9   4   5   29.90    6.30 
   9   4   5   35.30    6.70 
 -10  -4  -5   12.00    5.50 
  10   4   5    7.30    4.70 
  10   4   5   15.30    5.10 
   5  -5  -5    9.80    5.60 
  -5   5   5   13.70    4.50 
   4  -5  -5   29.40    7.30 
  -4   5   5   30.10    5.60 
  -4   5   5   26.90    5.50 
   3  -5  -5  253.07   18.50 
  -3   5   5  299.27   16.30 
  -3   5   5  291.37   16.10 
   2  -5  -5  305.87   19.40 
  -2   5   5  312.07   15.90 
  -2   5   5  286.57   15.30 
   1  -5  -5  957.00   42.00 
  -1   5   5  877.21   36.00 
  -1   5   5  944.71   36.70 
   0  -5  -5  475.25   24.40 
   0   5   5  437.66   19.30 
   0   5   5  466.75   24.70 
   0   5   5  445.36   19.10 
  -1  -5  -5   53.19    6.80 
   1   5   5   78.99    8.20 
   1   5   5   73.09    5.10 
   1   5   5   65.79    4.70 
   2   5   5  635.54   25.20 
   2   5   5  603.14   25.00 
   2   5   5  630.14   30.30 
  -3  -5  -5  851.91   30.70 
   3   5   5  852.51   37.20 
   3   5   5  760.92   32.70 
   3   5   5  816.52   32.60 
  -4  -5  -5    1.70    1.30 
   4   5   5    0.90    1.80 
   4   5   5    1.80    1.40 
   4   5   5    2.70    1.80 
  -5  -5  -5  102.09    7.60 
   5   5   5   92.89    8.00 
   5   5   5   98.99    8.00 
   5   5   5  101.89    9.00 
  -6  -5  -5  252.57   14.60 
   6   5   5  201.68   19.90 
   6   5   5  218.68   14.20 
   6   5   5  259.67   15.30 
  -7  -5  -5  325.87   18.80 
   7   5   5  339.77   19.70 
   7   5   5  302.77   26.40 
   7   5   5  328.17   19.20 
  -8  -5  -5    1.20    3.50 
   8   5   5    9.20    4.50 
   8   5   5   -1.70    2.30 
   8   5   5   -2.30    2.10 
  -9  -5  -5  405.56   25.00 
   9   5   5  402.46   23.90 
   9   5   5  403.56   24.30 
  10   5   5   -1.20    3.70 
  10   5   5   -9.90    4.90 
   4  -6  -5    5.10    4.40 
  -4   6   5    2.60    2.90 
   3  -6  -5  184.98   16.30 
  -3   6   5  236.58   13.70 
  -3   6   5  198.68   17.60 
   2  -6  -5    8.60    4.10 
  -2   6   5    6.00    2.50 
  -2   6   5    8.90    3.40 
   1  -6  -5   82.59   10.20 
  -1   6   5  103.49    6.90 
  -1   6   5  104.49    7.50 
   0  -6  -5 1147.49   50.59 
   0   6   5 1142.99   43.00 
   0   6   5 1184.18   43.70 
   0   6   5 1164.48   50.99 
  -1  -6  -5  193.48   14.40 
   1   6   5  214.28   15.50 
   1   6   5  206.38   10.10 
   1   6   5  197.98    9.60 
   2   6   5  563.94   23.00 
   2   6   5  561.14   29.00 
   2   6   5  555.74   22.70 
   3   6   5  257.27   16.60 
   3   6   5  213.38   12.00 
   3   6   5  234.58   12.00 
  -4  -6  -5 3388.46  120.89 
   4   6   5 3576.64  124.09 
   4   6   5 3351.16  124.69 
   4   6   5 3525.15  128.89 
  -5  -6  -5  198.38   11.00 
   5   6   5  218.48   13.10 
   5   6   5  202.38   14.00 
   5   6   5  186.78   12.10 
  -6  -6  -5  153.08   10.20 
   6   6   5  106.89    9.90 
   6   6   5  137.89   10.60 
   6   6   5  136.59   10.90 
  -7  -6  -5   10.10    3.80 
   7   6   5   16.20    4.10 
   7   6   5   14.80    4.50 
   7   6   5   16.60    4.60 
  -8  -6  -5   46.80    7.50 
   8   6   5   32.80    6.70 
   8   6   5   40.40    7.30 
   8   6   5   45.80   11.40 
  -9  -6  -5   19.00    6.30 
   9   6   5   23.00    6.00 
   9   6   5   36.20    6.90 
  10   6   5    6.70    4.50 
  10   6   5   -2.60    3.40 
   3  -7  -5   47.70   13.50 
  -3   7   5   40.70    5.40 
  -3   7   5   40.20    6.10 
   2  -7  -5   41.00    7.90 
  -2   7   5   49.00    5.30 
  -2   7   5   51.49    5.20 
   1  -7  -5    4.20    4.20 
  -1   7   5   11.00    2.50 
  -1   7   5   10.50    2.40 
   0  -7  -5   25.20    6.20 
   0   7   5   25.00    2.70 
  -1  -7  -5  216.08   16.60 
   1   7   5  240.78   10.90 
   1   7   5  252.57   11.40 
   1   7   5  233.18   17.10 
   2   7   5  338.07   15.20 
   2   7   5  347.17   21.80 
   2   7   5  355.96   15.60 
   3   7   5  975.80   38.90 
   3   7   5 1037.10   45.70 
   3   7   5  968.90   38.40 
   4   7   5  139.29   12.40 
   4   7   5  137.89    9.70 
   4   7   5  151.88    9.50 
  -5  -7  -5    1.80    1.40 
   5   7   5    2.60    2.30 
   5   7   5    1.20    2.80 
  -6  -7  -5  127.59    8.70 
   6   7   5  110.79   18.80 
   6   7   5  133.99   10.30 
  -7  -7  -5   23.30    4.40 
   7   7   5   15.70    4.30 
   7   7   5   20.40    5.30 
   7   7   5   12.80    4.30 
  -8  -7  -5    4.60    3.10 
   8   7   5    1.70    3.70 
   8   7   5    2.90    2.50 
   8   7   5   -1.90    2.50 
   9   7   5   20.50    6.20 
   9   7   5   26.00    6.10 
   2  -8  -5   43.90    9.20 
  -2   8   5   34.80    7.40 
  -2   8   5   39.70    4.50 
   1  -8  -5   32.00    7.50 
  -1   8   5   34.60    3.70 
  -1   8   5   32.50    3.80 
   0  -8  -5   10.70    4.40 
   0   8   5   15.80    2.60 
   0   8   5   15.70    2.10 
  -1  -8  -5  106.79   11.10 
   1   8   5  107.79    6.00 
   1   8   5   81.99   10.30 
   1   8   5  104.29    6.10 
  -2  -8  -5   22.10    6.00 
   2   8   5   16.60    6.10 
   2   8   5   19.00    2.60 
   2   8   5   19.10    2.90 
   3   8   5   -2.90    1.10 
   3   8   5   -0.30    1.60 
   3   8   5    4.40    3.60 
   4   8   5   84.09    6.90 
   4   8   5   83.19    7.30 
   4   8   5   78.59   10.50 
   5   8   5  193.68   12.30 
   5   8   5  192.88   15.60 
   5   8   5  199.38   13.20 
   6   8   5   11.00    3.30 
   6   8   5    8.90    4.40 
   6   8   5   19.60    4.50 
  -7  -8  -5    4.70    3.40 
   7   8   5    2.90    3.80 
   7   8   5    8.30    3.50 
   7   8   5    5.50    4.00 
   8   8   5  172.18   14.20 
   8   8   5  186.78   15.30 
   9   8   5  103.39   11.40 
   9   8   5  100.59   19.70 
  -1   9   5    2.30    1.40 
  -1   9   5    1.20    1.60 
   0  -9  -5  126.89   13.30 
   0   9   5  109.29    5.50 
   0   9   5  111.69    5.50 
  -1  -9  -5   15.80    5.60 
   1   9   5    6.40    1.60 
   1   9   5    4.80    4.30 
  -2  -9  -5   20.20    5.30 
   2   9   5   27.00    3.00 
   2   9   5   22.20    3.20 
   2   9   5   22.50    5.40 
   3   9   5  106.09    7.50 
   3   9   5  108.19   11.80 
   3   9   5   98.09    6.90 
   4   9   5   16.10    5.00 
   4   9   5   10.80    3.00 
   5   9   5   29.60    6.80 
   5   9   5   28.40    5.00 
   5   9   5   32.60    5.30 
   6   9   5   -1.50    3.70 
   6   9   5    1.00    3.90 
   6   9   5    1.00    2.30 
   7   9   5   18.70    9.50 
   7   9   5   15.50    4.20 
   7   9   5   27.30    6.80 
   8   9   5   12.20    5.40 
  -1 -10  -5   83.19   11.60 
  -2 -10  -5   29.60    7.00 
   2  10   5   22.10    3.00 
   2  10   5   12.90    5.90 
   2  10   5   28.70    3.20 
  -3 -10  -5   12.90    5.00 
   3  10   5   14.60    2.90 
   3  10   5   13.60    3.40 
   3  10   5    9.00    5.70 
   4  10   5   59.19    5.70 
   4  10   5   57.39    6.30 
   4  10   5   45.70    8.70 
   5  10   5   20.60    5.80 
   6  10   5   69.89    7.90 
   6  10   5   43.10    9.50 
   6  10   5   68.19   11.40 
   7  10   5    3.00    4.50 
   7  10   5   -3.40    2.70 
   2   9  -6   42.90    8.10 
   1   9  -6    6.60    4.30 
   4   8  -6   12.60    5.20 
   3   8  -6  300.57   20.70 
   2   8  -6    4.00    3.40 
   1   8  -6   20.60    5.50 
   0   8  -6  127.29   11.70 
  -1   8  -6   13.20    7.60 
  -2   8  -6   22.30    4.80 
   5   7  -6   26.40    7.00 
   4   7  -6   39.90    8.20 
   4   7  -6   69.89    4.20 
   3   7  -6   11.70    4.60 
   3   7  -6   16.10    5.40 
   2   7  -6  104.39   18.60 
   2   7  -6  131.09   11.80 
  -2  -7   6  132.49   11.00 
   1   7  -6  183.68   14.70 
   1   7  -6  207.38   14.70 
  -1  -7   6  197.68   13.20 
   0   7  -6  112.79   10.20 
  -1   7  -6   59.79    7.10 
  -1   7  -6   44.20    7.50 
  -2   7  -6  120.49   11.10 
  -2   7  -6  155.58   12.00 
  -3   7  -6   26.60    6.60 
  -3   7  -6   19.20    5.20 
  -4   7  -6    3.90    3.20 
   6   6  -6  152.88   15.20 
   6   6  -6  149.49   11.50 
   5   6  -6   37.10    4.90 
   5   6  -6   30.60    7.30 
  -5  -6   6   36.70    7.20 
   4   6  -6    2.70    1.80 
   4   6  -6    2.80    3.80 
   4   6  -6   -1.70    2.40 
   4   6  -6    3.50    3.60 
  -4  -6   6   -1.20    2.20 
  -4  -6   6   -2.30    4.10 
   3   6  -6   10.20    4.20 
   3   6  -6    4.60    1.40 
  -3  -6   6   -2.20    2.30 
   2   6  -6  120.29   13.30 
   2   6  -6  120.69   11.50 
  -2  -6   6  111.59   10.20 
   1   6  -6    7.70    2.90 
  -1  -6   6    0.00    2.50 
   0   6  -6  376.16   20.90 
   0   6  -6  362.06   21.00 
   0  -6   6  361.86   19.50 
  -1   6  -6   89.39    9.00 
   1  -6   6  100.29    8.20 
  -2   6  -6  132.49   11.00 
  -2   6  -6  135.39   10.80 
  -3   6  -6    8.20    3.30 
  -3   6  -6   17.40    4.70 
  -4   6  -6   25.10    5.30 
  -4   6  -6   18.10    4.70 
   4  -6   6   17.30    3.10 
  -5   6  -6    0.50    3.60 
   5  -6   6    5.00    2.90 
   6   5  -6   -4.10    2.50 
  -6  -5   6    6.40    5.00 
   5   5  -6  193.98   12.70 
   5   5  -6  190.38   16.10 
  -5  -5   6  155.58   15.00 
   4   5  -6    9.70    4.90 
   4   5  -6   15.20    3.60 
   4   5  -6   26.50    4.40 
   4   5  -6    8.60    4.50 
  -4  -5   6   18.70    3.80 
  -4  -5   6    6.80    4.20 
   3   5  -6  372.36   22.50 
   3   5  -6  383.26   17.60 
   3   5  -6  428.76   23.70 
   3   5  -6  384.76   17.00 
  -3  -5   6  366.86   22.20 
  -3  -5   6  412.36   17.50 
   2   5  -6  461.45   25.90 
   2   5  -6  510.65   26.50 
  -2  -5   6  519.55   26.10 
   1   5  -6  648.44   32.10 
   1   5  -6  671.53   32.40 
  -1  -5   6  721.03   32.40 
   0   5  -6  134.59   11.00 
   0   5  -6  152.58   11.70 
   0  -5   6  148.79   11.00 
  -1   5  -6  929.41   40.90 
  -1   5  -6  928.41   41.10 
   1  -5   6 1006.70   40.60 
  -2   5  -6   93.49    8.40 
  -2   5  -6   93.09    8.70 
   2  -5   6  101.39    8.40 
  -3   5  -6  183.58   12.50 
   3  -5   6  189.38   11.70 
   3  -5   6  160.18    7.80 
  -4   5  -6    2.80    2.60 
  -4   5  -6    3.30    2.30 
   4  -5   6    2.50    1.70 
   4  -5   6    2.00    2.40 
   4  -5   6    2.70    2.50 
  -5   5  -6  106.59   10.00 
   5  -5   6   86.59    7.50 
  -6   5  -6  140.79   13.70 
   6  -5   6  138.19   11.10 
   7   4  -6   59.39    9.80 
   7   4  -6   56.79   12.80 
  -7  -4   6   48.10    9.20 
   6   4  -6   30.20    6.50 
   6   4  -6   20.40    6.40 
  -6  -4   6   22.40    6.50 
   5   4  -6  104.69   11.10 
   5   4  -6  107.99    9.70 
  -5  -4   6   85.89   10.70 
   4   4  -6   52.39    8.60 
   4   4  -6   64.99    7.20 
   4   4  -6   65.99    6.60 
  -4  -4   6   59.79    6.50 
  -4  -4   6   55.69    7.70 
   3   4  -6  269.67   18.20 
   3   4  -6  286.87   14.30 
   3   4  -6  285.37   25.50 
   3   4  -6  290.77   14.90 
  -3  -4   6  258.97   17.50 
  -3  -4   6  284.37   14.30 
   2   4  -6  619.74   24.10 
   2   4  -6  614.64   30.00 
   2   4  -6  613.34   30.30 
   2   4  -6  586.84   24.40 
  -2  -4   6  603.44   29.80 
   1   4  -6 1699.63   66.19 
   1   4  -6 1662.83   65.79 
  -1  -4   6 1594.54   66.69 
   0   4  -6  231.38   14.40 
   0   4  -6  218.68   14.10 
   0  -4   6  217.08   14.00 
  -1   4  -6   32.50    5.50 
  -1   4  -6   34.80    5.70 
   1  -4   6   41.10    5.40 
  -2   4  -6  742.73   32.50 
  -2   4  -6  669.93   31.30 
   2  -4   6  737.53   32.00 
  -3   4  -6   65.29    7.00 
  -3   4  -6   74.89    4.80 
  -3   4  -6   76.29    7.20 
   3  -4   6   62.39    4.20 
   3  -4   6   63.39    6.80 
  -4   4  -6    0.10    1.70 
  -4   4  -6    3.80    2.40 
  -4   4  -6    0.50    2.50 
   4  -4   6    1.40    1.60 
   4  -4   6    1.50    1.80 
  -5   4  -6   38.20    6.20 
  -5   4  -6   21.40    4.30 
  -5   4  -6   23.10    5.30 
   5  -4   6   29.60    4.90 
   5  -4   6   30.50    5.10 
  -6   4  -6  144.79   12.30 
  -6   4  -6  122.79   11.70 
   6  -4   6  134.19   10.80 
  -7   4  -6   35.30    7.40 
   7  -4   6   29.30    6.20 
   7   3  -6  231.98   17.90 
  -7  -3   6  214.88   18.70 
   6   3  -6  174.18   14.00 
   6   3  -6  191.18   15.80 
  -6  -3   6  149.69   14.60 
   5   3  -6  111.59   10.10 
   5   3  -6  121.29   13.00 
  -5  -3   6   93.49   11.20 
   4   3  -6  540.55   43.50 
   4   3  -6  676.53   29.10 
  -4  -3   6  579.34   38.60 
   3   3  -6   89.29    9.30 
   3   3  -6   87.69    7.60 
  -3  -3   6   79.89    8.70 
  -3  -3   6  101.49    7.70 
   2   3  -6  687.33   31.90 
   2   3  -6  679.23   28.10 
   2   3  -6  694.33   36.40 
   2   3  -6  680.83   27.30 
  -2  -3   6  619.44   31.40 
   1   3  -6   49.60    6.30 
   1   3  -6   52.89    6.30 
   1   3  -6   49.60    3.70 
   1   3  -6   50.69    4.00 
  -1  -3   6   49.10    6.50 
  -1  -3   6   46.90    5.80 
   0   3  -6 4673.73  172.88 
   0   3  -6 5387.86  181.18 
   0   3  -6 5230.78  180.78 
   0   3  -6 4828.92  172.98 
   0  -3   6 5222.08  180.88 
   0  -3   6 4898.41  181.98 
  -1   3  -6   30.90    5.00 
  -1   3  -6   27.70    4.80 
   1  -3   6   24.60    4.40 
  -2   3  -6    4.10    2.20 
  -2   3  -6    1.10    0.80 
  -2   3  -6   -1.50    1.60 
   2  -3   6    3.50    1.90 
   2  -3   6    0.90    1.00 
  -3   3  -6 2069.19   72.89 
  -3   3  -6 2167.88   77.49 
  -3   3  -6 1988.50   77.29 
   3  -3   6 2102.69   77.69 
   3  -3   6 1855.81   72.39 
  -4   3  -6    8.40    3.30 
  -4   3  -6    9.20    2.70 
  -4   3  -6   11.10    3.60 
   4  -3   6    9.10    2.40 
   4  -3   6   10.00    3.10 
  -5   3  -6  694.43   30.40 
  -5   3  -6  757.02   33.70 
  -5   3  -6  690.73   33.10 
   5  -3   6  721.13   30.90 
   5  -3   6  705.33   32.70 
  -6   3  -6    6.00    3.30 
  -6   3  -6   12.80    6.30 
   6  -3   6    5.60    3.00 
   6  -3   6    0.90    3.70 
  -7   3  -6   18.40    5.30 
   7  -3   6    9.00    4.10 
  -8   3  -6   61.69   17.20 
   8  -3   6   98.19   10.80 
   7   2  -6  104.59   11.80 
  -7  -2   6   92.49   12.50 
   6   2  -6  112.69   11.50 
   6   2  -6  105.39   12.10 
  -6  -2   6  140.29   13.60 
   5   2  -6   63.79    7.70 
   5   2  -6   38.70    7.10 
  -5  -2   6   72.49    9.20 
   4   2  -6  969.80   47.60 
   4   2  -6 1140.19   46.50 
  -4  -2   6 1135.39   48.80 
  -4  -2   6 1185.48   49.99 
   3   2  -6  912.11   39.00 
   3   2  -6  788.82   39.80 
   3   2  -6  948.41   37.90 
  -3  -2   6  930.51   38.20 
  -3  -2   6  929.61   42.00 
  -3  -2   6  949.40   40.80 
   2   2  -6  961.60   37.60 
   2   2  -6  896.81   40.70 
   2   2  -6  972.80   41.70 
   2   2  -6  935.11   38.60 
  -2  -2   6 1036.10   42.20 
  -2  -2   6  937.71   37.90 
  -2  -2   6  893.71   49.30 
   1   2  -6   17.50    3.90 
   1   2  -6   22.80    3.60 
   1   2  -6   19.50    2.60 
   1   2  -6   18.60    4.10 
  -1  -2   6   34.40    5.40 
  -1  -2   6   10.40    3.30 
   0   2  -6  208.58   13.10 
   0   2  -6  223.78   13.40 
   0   2  -6  194.98    9.50 
   0   2  -6  203.18    9.70 
   0  -2   6  193.78   12.80 
   0  -2   6  218.28   12.80 
  -1   2  -6    2.70    2.10 
  -1   2  -6    5.50    1.30 
  -1   2  -6   10.40    2.90 
   1  -2   6    6.80    2.40 
   1  -2   6    3.00    1.20 
   1  -2   6    6.40    2.30 
  -2   2  -6  234.18   14.30 
  -2   2  -6  230.78   10.80 
  -2   2  -6  228.28   13.60 
   2  -2   6  239.38   11.10 
   2  -2   6  247.88   14.20 
   2  -2   6  223.68   13.50 
  -3   2  -6 2060.19   74.89 
  -3   2  -6 2123.79   78.09 
  -3   2  -6 1983.10   77.99 
   3  -2   6 2077.09   78.89 
   3  -2   6 2108.69   74.29 
  -4   2  -6  432.86   19.20 
  -4   2  -6  402.26   20.90 
  -4   2  -6  408.16   21.00 
   4  -2   6  406.36   18.60 
   4  -2   6  421.36   21.70 
  -5   2  -6   89.79    7.60 
  -5   2  -6   86.09    8.90 
  -5   2  -6   94.79    9.20 
   5  -2   6   96.59    8.90 
   5  -2   6   97.19    7.70 
  -6   2  -6  211.38   15.10 
  -6   2  -6  223.78   15.30 
   6  -2   6  226.88   14.20 
   6  -2   6  233.08   15.10 
  -7   2  -6   14.30    5.10 
  -7   2  -6   14.20    4.90 
   7  -2   6   15.70    5.00 
   7  -2   6   19.80    4.90 
  -8   2  -6  239.48   18.30 
   8  -2   6  268.67   18.30 
   7   1  -6  146.19   14.20 
  -7  -1   6  126.89   14.30 
   6   1  -6    8.60    4.70 
   6   1  -6   11.90    4.40 
  -6  -1   6    8.50    8.00 
  -6  -1   6    9.70    5.40 
   5   1  -6    8.50    3.60 
   5   1  -6   10.20    3.70 
  -5  -1   6   -2.60    3.70 
  -5  -1   6    7.60    4.10 
   4   1  -6  948.21   45.00 
   4   1  -6 1094.59   44.90 
  -4  -1   6 1029.40   45.90 
  -4  -1   6 1090.69   47.20 
   3   1  -6 1245.58   55.49 
   3   1  -6 1440.36   54.39 
  -3  -1   6 1406.86   56.29 
  -3  -1   6 1376.76   57.19 
   2   1  -6    2.80    1.60 
   2   1  -6    3.60    2.60 
   2   1  -6    5.00    2.30 
   2   1  -6    0.60    1.90 
  -2  -1   6   -1.10    1.70 
  -2  -1   6   -0.40    1.70 
  -2  -1   6    0.70    2.00 
   1   1  -6   27.30    4.60 
   1   1  -6   27.30    3.90 
   1   1  -6   29.00    3.50 
   1   1  -6   21.10    4.10 
  -1  -1   6   30.00    4.90 
  -1  -1   6   28.50    5.10 
   0   1  -6 1856.61   71.49 
   0   1  -6 1870.51   68.69 
   0   1  -6 1889.31   68.39 
   0   1  -6 1933.01   71.69 
   0  -1   6 1839.22   70.49 
  -1   1  -6  187.28   11.80 
  -1   1  -6  193.98    9.30 
  -1   1  -6  176.98   11.50 
   1  -1   6  194.78   11.60 
   1  -1   6  203.68   10.60 
   1  -1   6  198.18   12.30 
  -2   1  -6 1216.98   49.10 
  -2   1  -6 1213.08   46.00 
  -2   1  -6 1271.37   48.90 
   2  -1   6 1261.77   49.30 
   2  -1   6 1232.88   46.80 
   2  -1   6 1272.07   50.09 
  -3   1  -6  451.35   21.60 
  -3   1  -6  435.56   19.80 
  -3   1  -6  463.45   21.90 
   3  -1   6  487.95   22.50 
   3  -1   6  456.35   19.30 
   3  -1   6  442.06   22.30 
  -4   1  -6   69.19    6.80 
  -4   1  -6   65.19    6.70 
  -4   1  -6   80.09    6.50 
   4  -1   6   68.89    5.80 
   4  -1   6   76.59    7.20 
   4  -1   6   67.79    7.10 
  -5   1  -6 2794.32  106.99 
  -5   1  -6 2896.11  105.39 
  -5   1  -6 2910.11  106.99 
   5  -1   6 2837.02  107.09 
   5  -1   6 2921.41  104.79 
  -6   1  -6  898.81   39.70 
  -6   1  -6  860.21   39.60 
   6  -1   6  890.71   38.20 
  -7   1  -6  175.28   13.70 
  -7   1  -6  162.78   13.70 
   7  -1   6  155.78   12.70 
   7  -1   6  169.38   12.50 
  -8   1  -6  186.78   16.20 
  -8   1  -6  166.08   14.50 
   8  -1   6  177.88   13.80 
   8  -1   6  154.08   13.20 
  -9   1  -6   11.30    5.10 
   9  -1   6    5.10    4.70 
   6   0  -6   11.40    5.00 
  -6   0   6    0.60    3.00 
   5   0  -6  161.98   12.40 
   5   0  -6  154.78   12.80 
  -5   0   6  139.09   14.30 
  -5   0   6  169.28   13.70 
   4   0  -6    9.70    3.60 
   4   0  -6   12.70    4.20 
  -4   0   6   20.60    4.70 
  -4   0   6   10.90    3.90 
   3   0  -6   11.20    3.50 
   3   0  -6    0.80    1.90 
  -3   0   6    3.70    2.50 
  -3   0   6   -2.60    2.00 
   2   0  -6 1574.24   61.59 
   2   0  -6 1543.35   59.59 
  -2   0   6 1483.65   61.19 
  -2   0   6 1532.85   60.09 
  -2   0   6 1578.84   60.99 
   1   0  -6  568.34   26.10 
   1   0  -6  577.04   26.10 
   1   0  -6  538.25   26.70 
   1   0  -6  564.34   24.90 
  -1   0   6  578.84   25.90 
  -1   0   6  557.74   26.50 
   0   0  -6  211.38   12.30 
   0   0  -6  191.78   11.50 
   0   0  -6  222.58   12.70 
   0   0  -6  201.18   11.30 
   0   0   6  205.38   11.90 
   0   0   6  197.18   12.60 
   0   0   6  203.98   11.80 
  -1   0  -6 3949.10  149.09 
  -1   0  -6 4287.27  151.68 
  -1   0  -6 4194.88  151.68 
   1   0   6 4587.74  152.88 
   1   0   6 4198.68  150.98 
   1   0   6 4300.07  151.08 
  -2   0  -6 5539.85  191.78 
  -2   0  -6 5417.06  191.98 
  -2   0  -6 5476.75  189.58 
   2   0   6 5461.95  192.98 
   2   0   6 5229.28  190.68 
   2   0   6 5491.15  192.28 
  -3   0  -6  420.36   19.20 
  -3   0  -6  433.96   20.40 
  -3   0  -6  427.66   20.60 
   3   0   6  461.75   21.30 
   3   0   6  432.86   21.30 
   3   0   6  418.16   19.00 
  -4   0  -6    5.70    2.50 
  -4   0  -6    2.40    1.80 
  -4   0  -6    3.30    1.70 
   4   0   6    5.50    2.00 
   4   0   6    5.80    2.30 
   4   0   6    6.10    2.60 
  -5   0  -6    7.10    4.20 
  -5   0  -6    4.00    2.30 
  -5   0  -6    1.00    1.80 
   5   0   6    4.00    2.40 
   5   0   6    6.40    2.50 
   5   0   6    3.20    1.90 
  -6   0  -6  264.17   16.50 
  -6   0  -6  278.67   17.20 
   6   0   6  273.47   15.80 
   6   0   6  245.28   16.00 
  -7   0  -6    1.40    2.70 
  -7   0  -6    0.40    2.80 
   7   0   6    1.30    2.20 
   7   0   6   -0.30    2.70 
  -8   0  -6   10.30    3.90 
  -8   0  -6   12.40    5.10 
   8   0   6    8.50    4.20 
   8   0   6    9.20    3.70 
  -9   0  -6  155.38   14.80 
   9   0   6  147.59   13.40 
   6  -1  -6  154.68   13.80 
  -6   1   6  149.09   14.60 
   5  -1  -6    3.20    2.50 
   5  -1  -6    0.80    3.10 
  -5   1   6    3.50    3.60 
   4  -1  -6   55.59    6.50 
   4  -1  -6   53.09    7.00 
  -4   1   6   61.09    7.70 
  -4   1   6   50.79    7.00 
   3  -1  -6  335.07   18.90 
   3  -1  -6  327.07   17.80 
  -3   1   6  323.67   18.50 
  -3   1   6  318.97   19.20 
   2  -1  -6  174.78   11.10 
   2  -1  -6  158.38   11.20 
  -2   1   6  168.58   11.80 
  -2   1   6  146.29   10.80 
   1  -1  -6 3380.06  125.19 
   1  -1  -6 3327.17  123.49 
   1  -1  -6 3510.15  123.59 
   1  -1  -6 3298.57  124.29 
  -1   1   6 3444.36  124.29 
  -1   1   6 3506.45  123.69 
   0  -1  -6    2.50    1.50 
   0  -1  -6    5.10    1.80 
   0  -1  -6    4.40    1.90 
   0  -1  -6    5.40    2.10 
   0   1   6    6.70    2.10 
   0   1   6    4.10    1.80 
   0   1   6    8.30    2.40 
  -1  -1  -6 3090.19  110.49 
  -1  -1  -6 3180.78  110.99 
  -1  -1  -6 2879.91  109.79 
   1   1   6 3152.88  110.29 
   1   1   6 3007.60  111.19 
   1   1   6 3053.39  111.59 
  -2  -1  -6  123.79    8.10 
  -2  -1  -6  112.49    8.00 
  -2  -1  -6  106.19    7.10 
   2   1   6   97.89    7.70 
   2   1   6  104.39    8.30 
   2   1   6  120.49    8.50 
  -3  -1  -6 3752.42  134.19 
  -3  -1  -6 3728.03  135.29 
  -3  -1  -6 3878.11  134.99 
   3   1   6 3728.83  135.89 
   3   1   6 3633.84  135.79 
   3   1   6 3935.91  134.69 
  -4  -1  -6  454.85   21.80 
  -4  -1  -6  450.35   21.60 
  -4  -1  -6  449.06   21.10 
   4   1   6  466.05   22.10 
   4   1   6  450.85   22.20 
   4   1   6  444.96   20.40 
  -5  -1  -6 1168.98   46.70 
  -5  -1  -6 1202.28   47.00 
  -5  -1  -6 1020.80   50.39 
   5   1   6 1136.19   47.40 
   5   1   6 1136.99   45.00 
   5   1   6 1099.29   46.30 
  -6  -1  -6   60.29    7.30 
  -6  -1  -6   67.39    8.20 
   6   1   6   60.79    6.80 
   6   1   6   66.89    6.80 
  -7  -1  -6   23.50    6.10 
  -7  -1  -6   39.90    6.90 
   7   1   6   37.10    6.20 
   7   1   6   31.90    6.00 
  -8  -1  -6    5.70    3.60 
   8   1   6    0.30    3.10 
   8   1   6    7.00    3.70 
  -9  -1  -6  189.78   16.40 
   9   1   6  195.48   15.20 
   9   1   6  195.18   15.50 
 -10  -1  -6    9.20    6.00 
  10   1   6    3.10    4.10 
   6  -2  -6   -0.10    3.60 
   5  -2  -6  324.77   21.10 
  -5   2   6  286.17   20.00 
  -5   2   6  333.67   20.70 
   4  -2  -6  507.45   26.80 
   4  -2  -6  460.75   22.80 
  -4   2   6  458.95   25.50 
  -4   2   6  479.65   25.40 
   3  -2  -6  262.77   16.70 
   3  -2  -6  247.48   14.10 
  -3   2   6  237.58   15.40 
  -3   2   6  247.48   15.90 
   2  -2  -6  433.96   22.60 
   2  -2  -6  427.96   20.20 
  -2   2   6  422.66   21.30 
  -2   2   6  444.26   22.20 
   1  -2  -6  538.85   25.80 
   1  -2  -6  540.35   23.90 
  -1   2   6  537.35   25.00 
   0  -2  -6 3089.29  114.39 
   0  -2  -6 3084.79  115.09 
   0  -2  -6 3012.90  112.29 
   0  -2  -6 3103.19  111.89 
   0   2   6 3259.77  112.79 
   0   2   6 3111.19  115.29 
   0   2   6 3225.38  113.69 
  -1  -2  -6   72.29    5.80 
  -1  -2  -6   72.19    6.60 
  -1  -2  -6   82.19    6.30 
   1   2   6   76.59    8.20 
   1   2   6   76.09    6.00 
   1   2   6   81.09    9.40 
  -2  -2  -6 1643.64   71.19 
  -2  -2  -6 1941.61   68.69 
  -2  -2  -6 1862.41   68.29 
   2   2   6 1951.40   69.69 
   2   2   6 1795.52   68.39 
   2   2   6 1877.61   70.69 
  -3  -2  -6  604.64   25.80 
  -3  -2  -6  643.04   26.10 
  -3  -2  -6  542.05   32.70 
   3   2   6  611.64   26.60 
   3   2   6  576.24   33.80 
   3   2   6  604.24   26.60 
  -4  -2  -6   -0.30    1.10 
  -4  -2  -6    2.70    1.50 
  -4  -2  -6    0.40    1.40 
   4   2   6   -1.40    0.80 
   4   2   6    1.40    1.50 
   4   2   6    2.50    1.90 
  -5  -2  -6  104.79    8.40 
  -5  -2  -6   97.49    8.70 
   5   2   6  106.99    8.80 
   5   2   6   96.19    8.70 
   5   2   6  108.89    8.30 
  -6  -2  -6  272.67   17.30 
  -6  -2  -6  349.96   18.70 
   6   2   6  327.07   19.10 
   6   2   6  287.77   17.40 
   6   2   6  317.07   17.20 
  -7  -2  -6   24.20    5.50 
   7   2   6   22.80    5.00 
   7   2   6   28.20    5.80 
  -8  -2  -6   20.00    5.20 
   8   2   6    9.80    4.60 
   8   2   6   12.40    4.00 
  -9  -2  -6   72.99    9.90 
   9   2   6   36.40   10.20 
   9   2   6   51.59    8.80 
 -10  -2  -6   23.00    8.30 
  10   2   6   25.20    7.30 
   5  -3  -6   -0.20    3.30 
  -5   3   6   -5.00    2.40 
   4  -3  -6  606.54   31.90 
   4  -3  -6  591.84   25.60 
  -4   3   6  589.54   29.90 
  -4   3   6  618.44   30.40 
   3  -3  -6  223.18   11.80 
   3  -3  -6  217.28   15.80 
  -3   3   6  226.98   14.50 
  -3   3   6  238.08   15.00 
   2  -3  -6 2273.17   83.39 
   2  -3  -6 2359.86   89.59 
  -2   3   6 2384.96   87.39 
  -2   3   6 2217.98   86.09 
   1  -3  -6  594.54   24.30 
   1  -3  -6  580.14   28.80 
  -1   3   6  590.14   26.10 
  -1   3   6  601.34   26.70 
   0  -3  -6  805.92   30.60 
   0  -3  -6  736.23   34.00 
   0   3   6  747.63   31.30 
   0   3   6  751.72   32.00 
   0   3   6  781.12   35.10 
  -1  -3  -6 1856.01   71.39 
  -1  -3  -6 1797.42   67.89 
  -1  -3  -6 1835.92   67.39 
   1   3   6 1877.81   68.39 
   1   3   6 1815.52   69.29 
   1   3   6 1972.50   73.39 
  -2  -3  -6  958.00   40.10 
  -2  -3  -6 1006.10   38.60 
  -2  -3  -6  981.30   38.80 
   2   3   6 1002.40   39.80 
   2   3   6 1049.30   42.90 
  -3  -3  -6  238.98   13.20 
  -3  -3  -6  245.58   12.80 
  -3  -3  -6  251.87   12.70 
   3   3   6  240.58   13.20 
   3   3   6  236.78   14.40 
   3   3   6  231.48   13.20 
  -4  -3  -6  108.69    8.00 
  -4  -3  -6  106.49    9.20 
  -4  -3  -6  108.49    7.80 
   4   3   6  110.99    8.60 
   4   3   6  104.49    8.20 
   4   3   6  108.89    8.50 
  -5  -3  -6   53.19    5.80 
   5   3   6   44.20    5.60 
   5   3   6   52.69    5.80 
   5   3   6   46.50    5.60 
  -6  -3  -6    2.50    1.30 
   6   3   6    2.50    2.30 
   6   3   6   -1.60    1.60 
   6   3   6    0.70    1.40 
  -7  -3  -6  153.48   12.00 
   7   3   6  156.08   12.30 
   7   3   6  169.48   13.30 
   7   3   6  161.38   11.80 
  -8  -3  -6   68.39    8.40 
   8   3   6   69.09    8.00 
   8   3   6   61.99    8.00 
  -9  -3  -6   22.30    6.50 
   9   3   6   25.00    6.20 
   9   3   6   21.50    5.90 
 -10  -3  -6   32.80    8.10 
  10   3   6   32.30    6.80 
  10   3   6   31.60    6.70 
   5  -4  -6  130.69   14.20 
  -5   4   6  121.99   12.00 
   4  -4  -6    0.00    3.10 
  -4   4   6    3.30    3.80 
  -4   4   6    3.40    3.30 
   3  -4  -6  111.39   11.30 
  -3   4   6  127.69   10.20 
  -3   4   6  121.99   10.00 
   2  -4  -6  270.47   19.50 
  -2   4   6  278.17   15.30 
  -2   4   6  269.57   18.60 
   1  -4  -6   78.29    8.50 
  -1   4   6   64.09    5.90 
  -1   4   6   78.49    6.90 
   0  -4  -6  381.06   21.50 
   0   4   6  405.46   22.30 
   0   4   6  386.96   18.50 
   0   4   6  375.76   17.70 
  -1  -4  -6    7.40    1.50 
  -1  -4  -6    7.80    2.90 
   1   4   6    6.60    2.10 
   1   4   6   11.30    3.80 
   1   4   6   10.40    2.10 
  -2  -4  -6    6.70    1.80 
   2   4   6    7.50    2.00 
   2   4   6    7.80    2.90 
   2   4   6    5.80    2.00 
  -3  -4  -6  395.06   17.10 
   3   4   6  347.97   17.70 
   3   4   6  379.36   20.60 
   3   4   6  371.36   17.90 
  -4  -4  -6 1334.17   50.69 
   4   4   6 1274.17   52.09 
   4   4   6 1410.66   54.39 
   4   4   6 1311.17   51.69 
  -5  -4  -6  126.99    9.00 
   5   4   6  120.29    9.70 
   5   4   6  128.19    9.80 
   5   4   6  128.69    9.50 
  -6  -4  -6 1208.48   54.09 
   6   4   6 1261.17   50.79 
   6   4   6 1253.27   50.89 
   6   4   6 1245.98   51.99 
  -7  -4  -6   47.20    6.40 
   7   4   6   69.09    8.50 
   7   4   6   55.69    9.50 
   7   4   6   66.29    7.40 
  -8  -4  -6   -2.00    2.30 
   8   4   6   -1.00    2.60 
   8   4   6   -0.30    2.60 
  -9  -4  -6    2.70    3.60 
   9   4   6    0.50    3.30 
   9   4   6   -3.90    2.60 
 -10  -4  -6    8.80    5.90 
  10   4   6    4.30    4.20 
  10   4   6    5.30    4.20 
   4  -5  -6    1.80    4.80 
  -4   5   6   -3.50    3.60 
  -4   5   6    6.30    3.80 
   3  -5  -6  536.25   30.40 
  -3   5   6  544.25   26.80 
  -3   5   6  563.44   26.80 
   2  -5  -6   62.29    8.40 
  -2   5   6   47.80    5.80 
  -2   5   6   55.49    5.80 
   1  -5  -6  394.56   33.80 
  -1   5   6  373.06   25.40 
  -1   5   6  387.36   18.40 
   0  -5  -6  130.89   11.80 
   0   5   6  168.58   13.30 
   0   5   6  159.98    9.80 
   0   5   6  150.48    9.00 
  -1  -5  -6  630.24   31.70 
   1   5   6  658.93   27.50 
   1   5   6  631.14   26.40 
   1   5   6  706.53   33.30 
   2   5   6  341.57   20.50 
   2   5   6  322.17   15.70 
   2   5   6  345.97   16.20 
  -3  -5  -6  618.54   24.30 
   3   5   6  577.14   32.10 
   3   5   6  616.64   26.30 
   3   5   6  636.74   30.80 
  -4  -5  -6  515.55   22.40 
   4   5   6  545.15   27.40 
   4   5   6  525.75   24.50 
   4   5   6  547.65   24.20 
  -5  -5  -6 1060.39   42.20 
   5   5   6 1070.99   45.20 
   5   5   6 1082.39   44.60 
   5   5   6 1047.20   43.50 
  -6  -5  -6 1971.40   71.69 
   6   5   6 1979.40   73.29 
   6   5   6 1604.74   84.59 
   6   5   6 1829.12   71.99 
  -7  -5  -6    4.40    2.70 
   7   5   6   10.00    3.20 
   7   5   6    6.90    3.40 
   7   5   6    5.00    3.60 
  -8  -5  -6    5.20    3.30 
   8   5   6    3.70    2.70 
   8   5   6    4.70    3.00 
   8   5   6   11.40    4.60 
  -9  -5  -6    1.80    4.30 
   9   5   6    4.60    3.70 
   9   5   6    1.10    2.50 
  10   5   6   -1.70    3.20 
   3  -6  -6   38.30    8.40 
  -3   6   6   42.50    6.60 
  -3   6   6   24.20    5.30 
   2  -6  -6    3.40    3.20 
  -2   6   6    6.10    2.50 
  -2   6   6    0.00    2.30 
   1  -6  -6  289.87   19.50 
  -1   6   6  273.47   14.80 
  -1   6   6  272.77   14.30 
   0  -6  -6  332.27   25.40 
   0   6   6  340.77   21.50 
   0   6   6  339.97   26.40 
   0   6   6  335.97   15.70 
  -1  -6  -6  335.07   20.30 
   1   6   6  316.97   15.20 
   1   6   6  307.47   20.20 
   1   6   6  292.47   14.10 
   2   6   6   91.69    6.70 
   2   6   6   80.29    6.20 
   2   6   6  109.59   10.70 
   3   6   6 1122.39   43.00 
   3   6   6 1098.29   49.10 
   3   6   6 1079.69   43.20 
  -4  -6  -6 4303.77  151.48 
   4   6   6 4158.88  155.28 
   4   6   6 4565.74  154.98 
   4   6   6 4342.07  160.18 
  -5  -6  -6  197.48   10.70 
   5   6   6  188.88   14.20 
   5   6   6  191.78   12.20 
   5   6   6  172.78   12.30 
  -6  -6  -6   74.29    7.30 
   6   6   6   51.89    6.30 
   6   6   6   65.39    9.10 
   6   6   6   57.99    7.30 
  -7  -6  -6  183.48   13.10 
   7   6   6  205.78   14.60 
   7   6   6  206.48   14.90 
   7   6   6  186.98   14.30 
  -8  -6  -6  218.78   15.00 
   8   6   6  222.18   16.00 
   8   6   6  215.78   15.70 
   8   6   6  226.18   16.90 
   9   6   6   10.00    4.00 
   9   6   6    9.00    3.90 
  10   6   6   32.70    7.40 
  10   6   6   32.00    6.90 
   3  -7  -6   32.60    9.00 
  -3   7   6   49.80    6.20 
  -3   7   6   46.90    6.90 
   2  -7  -6   89.29   11.30 
  -2   7   6   92.89    7.80 
  -2   7   6   83.09    7.50 
   1  -7  -6  158.68   14.90 
  -1   7   6  165.18   10.00 
  -1   7   6  151.78    9.60 
   0  -7  -6  131.29   12.60 
   0   7   6  131.89    7.80 
  -1  -7  -6  450.35   26.10 
   1   7   6  446.96   19.40 
   1   7   6  419.16   18.50 
   1   7   6  424.56   26.00 
   2   7   6   -1.30    3.50 
   2   7   6    1.30    2.10 
   2   7   6    7.70    2.10 
   3   7   6  186.28   15.10 
   3   7   6  176.28   10.70 
   4   7   6    3.30    2.10 
   4   7   6    1.70    2.20 
   4   7   6   -2.20    2.70 
  -5  -7  -6  119.29    6.80 
   5   7   6  123.19    9.40 
   5   7   6   97.29   13.50 
  -6  -7  -6   67.29    5.90 
   6   7   6   58.79    6.80 
   6   7   6   62.49    8.40 
  -7  -7  -6   99.39    8.50 
   7   7   6   82.49    8.80 
   7   7   6   98.99    9.70 
   7   7   6  107.29   10.40 
   8   7   6    1.90    3.10 
   8   7   6    6.20    3.50 
   8   7   6   -3.60    4.10 
   9   7   6   59.29    9.50 
   9   7   6   85.19    9.90 
   1  -8  -6    2.70    4.70 
  -1   8   6    8.00    2.80 
  -1   8   6    6.20    2.60 
   0  -8  -6   12.70    4.50 
   0   8   6   20.60    3.30 
   0   8   6   17.10    3.00 
   1   8   6  174.58    9.30 
   1   8   6  177.08   16.00 
   1   8   6  176.68    9.80 
  -2  -8  -6   96.99   11.30 
   2   8   6  104.19    7.20 
   2   8   6  126.39   13.00 
   2   8   6  101.39    6.90 
   3   8   6   62.59    5.60 
   3   8   6   82.89   10.20 
   3   8   6   73.09    6.50 
   4   8   6  150.48   10.50 
   4   8   6  158.08   14.20 
   4   8   6  151.78   10.00 
   5   8   6   42.30    5.50 
   5   8   6   30.70    5.90 
   5   8   6   45.00    8.60 
   6   8   6   -2.10    2.80 
   6   8   6   -1.70    2.60 
   6   8   6    0.20    2.20 
  -7  -8  -6   17.00    3.60 
   7   8   6   21.00    5.60 
   7   8   6   17.70    4.40 
   7   8   6   15.90    4.20 
   8   8   6    1.00    3.10 
   8   8   6    6.70    3.70 
   9   8   6   41.60    7.90 
   0  -9  -6   52.39   10.50 
   0   9   6   43.80    4.20 
   0   9   6   53.39    4.50 
  -1  -9  -6   30.50    7.60 
   1   9   6   35.40    4.00 
   1   9   6   35.00    3.80 
   1   9   6   30.70    8.30 
  -2  -9  -6    2.70    3.50 
   2   9   6   10.00    5.40 
   2   9   6    3.60    1.80 
   2   9   6   -0.50    2.00 
  -3  -9  -6    4.00    3.90 
   3   9   6   15.60    3.10 
   3   9   6   13.80    5.70 
   3   9   6   15.20    3.30 
   4   9   6    2.00    2.00 
   4   9   6    7.30    2.50 
   4   9   6   -0.10    4.00 
   5   9   6   72.99   10.20 
   5   9   6   65.89    6.80 
   5   9   6   59.99    7.20 
   6   9   6  147.89   14.50 
   6   9   6  136.39   11.20 
   6   9   6  141.29   11.60 
   7   9   6   23.80    7.30 
   7   9   6   34.50    6.00 
   8   9   6    6.20    3.80 
  -2 -10  -6   30.10    8.20 
   2  10   6   17.60    6.50 
   2  10   6   29.60    3.90 
  -3 -10  -6   37.20    7.80 
   3  10   6   25.60    4.50 
   3  10   6   24.90    7.10 
   4  10   6   14.70    3.90 
   4  10   6    7.70    4.20 
   4  10   6   14.60    6.80 
   5  10   6    1.80    3.40 
   5  10   6   -2.90    2.00 
   5  10   6    8.70    5.80 
   6  10   6    8.30    3.50 
   6  10   6   11.40    5.70 
   7  10   6   24.80    5.50 
   2   8  -7   62.29   10.20 
   1   8  -7   46.60   12.60 
   0   8  -7   25.20    6.40 
  -1   8  -7   -1.60    2.90 
   4   7  -7   30.80    8.60 
   3   7  -7   62.89   10.30 
   2   7  -7   -2.70    2.30 
   1   7  -7   41.00    8.10 
   1   7  -7   29.40    6.30 
   0   7  -7   47.20    7.90 
   0   7  -7   59.69    8.10 
  -1   7  -7  122.09   11.70 
  -1   7  -7  114.59   12.00 
  -2   7  -7   13.00    4.10 
  -3   7  -7   61.99    9.30 
   5   6  -7   -4.80    4.60 
   5   6  -7   -2.60    2.50 
   4   6  -7  203.88   17.00 
   4   6  -7  204.88   10.70 
   3   6  -7  128.19   15.50 
   3   6  -7  139.19   12.50 
  -3  -6   7  114.29   11.60 
   2   6  -7    0.60    2.50 
   2   6  -7   -4.00    3.50 
  -2  -6   7    3.70    2.90 
   1   6  -7   19.40    5.50 
   1   6  -7    7.80    3.60 
  -1  -6   7   16.60    4.70 
   0   6  -7  383.36   23.70 
   0   6  -7  392.46   22.80 
  -1   6  -7   25.00    5.60 
  -1   6  -7   31.90    6.30 
   1  -6   7   33.70    6.20 
  -2   6  -7   19.00    5.10 
  -2   6  -7   25.60    5.40 
   2  -6   7   22.40    4.70 
  -3   6  -7    9.30    4.00 
  -3   6  -7    1.80    2.90 
  -4   6  -7  104.89   10.70 
  -5   6  -7   45.60    7.90 
   6   5  -7  174.08   16.80 
   6   5  -7  176.38   13.60 
   5   5  -7   53.29    6.70 
   5   5  -7   52.89    9.70 
  -5  -5   7   60.29    9.90 
   4   5  -7   18.30    4.40 
   4   5  -7    9.10    5.10 
   4   5  -7   17.40    3.70 
  -4  -5   7   22.40    5.50 
  -4  -5   7   10.20    3.40 
   3   5  -7   19.60    3.70 
   3   5  -7   23.60    3.20 
   3   5  -7   13.10    4.60 
   3   5  -7   25.90    6.40 
  -3  -5   7   28.30    6.10 
   2   5  -7   36.00    6.80 
   2   5  -7   32.60    6.70 
  -2  -5   7   29.60    6.40 
   1   5  -7   23.60    4.90 
   1   5  -7    6.30    2.70 
  -1  -5   7    7.40    3.30 
   0   5  -7   28.00    5.20 
   0   5  -7   29.90    6.10 
   0  -5   7   26.30    5.20 
  -1   5  -7  160.48   12.70 
  -1   5  -7  155.28   12.70 
   1  -5   7  176.58   12.70 
  -2   5  -7   51.59    6.90 
  -2   5  -7   56.39    7.40 
  -3   5  -7  115.69   10.40 
  -3   5  -7  107.39   10.20 
   3  -5   7  132.09   10.00 
  -4   5  -7    1.50    2.90 
  -4   5  -7    0.20    1.90 
  -4   5  -7    4.30    3.20 
   4  -5   7    4.60    3.60 
   4  -5   7    4.20    2.50 
   4  -5   7    6.90    1.90 
  -5   5  -7   34.60    6.70 
   5  -5   7   51.99    5.10 
  -6   5  -7   12.40    5.10 
   6  -5   7    0.20    3.10 
   6   4  -7   64.49    9.00 
   6   4  -7   43.80    8.80 
  -6  -4   7   34.90    9.30 
   5   4  -7   -1.40    3.20 
   5   4  -7   -0.50    2.80 
  -5  -4   7    7.00    4.60 
   4   4  -7   11.80    4.50 
  -4  -4   7    8.20    4.30 
   3   4  -7  379.16   18.80 
   3   4  -7  303.87   21.30 
   3   4  -7  369.86   17.40 
  -3  -4   7  362.76   22.10 
   2   4  -7  704.73   27.90 
   2   4  -7  715.53   34.50 
   2   4  -7  680.13   27.20 
  -2  -4   7  649.93   33.60 
   1   4  -7  137.49   11.40 
   1   4  -7  126.29    5.60 
   1   4  -7  141.99   12.10 
   1   4  -7  128.89    5.50 
  -1  -4   7  129.09   11.10 
   0   4  -7  134.79   11.40 
   0   4  -7  148.49   11.90 
   0  -4   7  150.78   11.70 
  -1   4  -7 1048.30   45.90 
  -1   4  -7 1042.30   45.90 
   1  -4   7 1147.79   46.50 
  -2   4  -7   11.00    3.40 
  -2   4  -7    2.90    2.60 
   2  -4   7    2.70    2.70 
  -3   4  -7   10.70    3.80 
  -3   4  -7    9.40    3.60 
   3  -4   7   17.70    4.00 
   3  -4   7   13.90    1.90 
  -4   4  -7  484.05   25.00 
  -4   4  -7  473.45   20.50 
  -4   4  -7  503.15   25.40 
   4  -4   7  493.05   25.00 
   4  -4   7  470.95   20.30 
  -5   4  -7  240.58   16.10 
  -5   4  -7  232.48   13.00 
  -5   4  -7  236.98   15.70 
   5  -4   7  217.08   12.30 
   5  -4   7  202.28   14.30 
  -6   4  -7    9.00    3.80 
   6  -4   7   -1.20    2.40 
  -7   4  -7   22.20    8.50 
   7  -4   7   38.90    6.70 
   6   3  -7   30.30    7.80 
   6   3  -7   12.90    5.50 
  -6  -3   7   26.10    7.60 
   5   3  -7  494.45   27.20 
   5   3  -7  486.45   28.80 
  -5  -3   7  481.45   29.10 
   4   3  -7    4.80    3.00 
   4   3  -7   14.90    5.00 
  -4  -3   7    7.00    4.90 
   3   3  -7   72.39    6.60 
   3   3  -7   72.29    7.20 
   3   3  -7   67.29    8.50 
  -3  -3   7   59.79    8.20 
  -3  -3   7   71.39    7.00 
   2   3  -7  193.08   13.40 
   2   3  -7  164.48   10.50 
   2   3  -7  166.68   13.30 
   2   3  -7  162.88    9.70 
  -2  -3   7  154.38   12.90 
   1   3  -7 2488.35   91.59 
   1   3  -7 2429.96   84.89 
   1   3  -7 2448.85   91.79 
   1   3  -7 2372.96   84.29 
  -1  -3   7 2089.59   90.39 
   0   3  -7   50.89    3.10 
   0   3  -7   44.90    3.10 
   0   3  -7   45.30    6.20 
   0   3  -7   51.29    6.40 
   0  -3   7   40.50    5.60 
  -1   3  -7   16.10    1.50 
  -1   3  -7   12.60    3.40 
  -1   3  -7   27.30    5.10 
  -1   3  -7   16.70    1.60 
   1  -3   7   20.60    4.50 
  -2   3  -7  213.68   13.80 
  -2   3  -7  190.48    8.70 
  -2   3  -7  221.98   13.70 
   2  -3   7  204.78   13.70 
   2  -3   7  194.18    9.30 
  -3   3  -7  125.19    6.90 
  -3   3  -7  126.59   10.10 
  -3   3  -7  143.89   10.60 
   3  -3   7  127.39   10.30 
   3  -3   7  107.39    6.70 
  -4   3  -7  196.48   10.50 
  -4   3  -7  189.18   13.50 
  -4   3  -7  194.98   13.40 
   4  -3   7  194.48   13.50 
   4  -3   7  188.78   10.30 
  -5   3  -7   -0.30    2.30 
  -5   3  -7    5.10    3.70 
  -5   3  -7    7.90    3.50 
   5  -3   7    3.00    2.20 
   5  -3   7   11.00    3.40 
  -6   3  -7  524.55   28.40 
  -6   3  -7  579.94   29.00 
   6  -3   7  531.35   27.80 
   6  -3   7  542.85   25.70 
  -7   3  -7   70.49    9.60 
   7  -3   7   50.79   12.40 
  -8   3  -7   -0.10    4.60 
   8  -3   7   -0.70    3.80 
   6   2  -7   32.80    7.60 
  -6  -2   7   59.59   10.90 
   5   2  -7    9.00    3.80 
   5   2  -7    8.90    4.80 
  -5  -2   7   11.50    4.40 
   4   2  -7   53.19    6.80 
   4   2  -7   69.39    8.40 
  -4  -2   7   57.39    9.50 
   3   2  -7  435.46   26.30 
   3   2  -7  529.25   24.50 
  -3  -2   7  524.45   27.20 
  -3  -2   7  564.04   28.70 
   2   2  -7 2279.07   82.49 
   2   2  -7 1925.61   84.19 
   2   2  -7 2225.18   81.89 
  -2  -2   7 2186.88   85.49 
  -2  -2   7 2277.17   84.69 
   1   2  -7 1236.78   46.50 
   1   2  -7 1216.58   47.50 
   1   2  -7 1342.47   52.09 
   1   2  -7 1161.38   51.09 
  -1  -2   7 1267.37   50.49 
  -1  -2   7 1132.09   51.09 
   0   2  -7  173.78   12.50 
   0   2  -7  177.98    9.20 
   0   2  -7  175.58    9.00 
   0   2  -7  162.08   12.00 
   0  -2   7  169.28   12.40 
   0  -2   7  180.88   12.10 
  -1   2  -7  653.63   30.40 
  -1   2  -7  666.13   30.50 
  -1   2  -7  638.04   25.70 
  -1   2  -7  666.03   25.40 
   1  -2   7  659.03   31.00 
   1  -2   7  675.33   26.50 
   1  -2   7  664.43   29.90 
  -2   2  -7   76.69    5.30 
  -2   2  -7   84.29    7.80 
  -2   2  -7   73.49    7.30 
   2  -2   7   77.69    7.70 
   2  -2   7   76.29    5.70 
  -3   2  -7  262.27   15.00 
  -3   2  -7  256.97   15.10 
  -3   2  -7  243.18   12.00 
   3  -2   7  200.78   11.40 
   3  -2   7  266.47   15.90 
  -4   2  -7    4.30    2.80 
  -4   2  -7    5.30    2.10 
  -4   2  -7    4.20    2.80 
   4  -2   7    6.00    2.00 
   4  -2   7    5.30    3.20 
  -5   2  -7   26.40    4.30 
  -5   2  -7   27.70    5.20 
  -5   2  -7   28.90    5.70 
   5  -2   7   24.60    5.70 
   5  -2   7   28.50    4.50 
  -6   2  -7  425.36   23.80 
  -6   2  -7  419.36   23.70 
   6  -2   7  432.26   23.70 
   6  -2   7  427.96   21.50 
  -7   2  -7    1.00    3.60 
   7  -2   7   -2.80    2.20 
   7  -2   7   -2.20    3.20 
  -8   2  -7  138.19   13.20 
   8  -2   7  107.69   10.60 
   6   1  -7   18.50    5.70 
  -6  -1   7   35.50    7.60 
   5   1  -7   81.99    9.10 
   5   1  -7   78.09    9.40 
  -5  -1   7   88.49   10.30 
  -5  -1   7   97.29   13.30 
   4   1  -7   80.29    8.60 
   4   1  -7   78.89    8.70 
  -4  -1   7   79.89    9.60 
  -4  -1   7   85.29    9.70 
   3   1  -7  819.22   35.10 
   3   1  -7  730.03   36.50 
  -3  -1   7  798.12   38.10 
  -3  -1   7  818.12   37.30 
   2   1  -7   13.70    3.70 
   2   1  -7    5.10    2.80 
   2   1  -7   10.90    3.10 
  -2  -1   7   12.30    3.80 
  -2  -1   7    6.30    3.20 
   1   1  -7  116.39    8.10 
   1   1  -7  102.59    9.30 
   1   1  -7  107.49    9.60 
   1   1  -7  108.29    9.20 
  -1  -1   7  111.09    9.80 
  -1  -1   7  114.49    9.60 
   0   1  -7    3.40    1.60 
   0   1  -7    4.90    3.50 
   0   1  -7    4.60    2.40 
   0   1  -7    0.40    1.50 
   0  -1   7    0.60    1.50 
   0  -1   7    4.70    2.30 
  -1   1  -7   30.50    5.00 
  -1   1  -7   27.40    3.20 
  -1   1  -7   30.60    3.50 
  -1   1  -7   29.90    5.30 
   1  -1   7   22.30    4.70 
   1  -1   7   28.80    3.70 
   1  -1   7   28.40    4.80 
  -2   1  -7  557.24   23.60 
  -2   1  -7  595.54   27.10 
  -2   1  -7  603.64   27.30 
   2  -1   7  576.24   27.70 
   2  -1   7  559.54   24.90 
   2  -1   7  625.94   36.20 
  -3   1  -7 3201.28  114.59 
  -3   1  -7 3278.77  117.39 
  -3   1  -7 3081.39  117.29 
   3  -1   7 3255.87  114.59 
   3  -1   7 3204.28  118.79 
   3  -1   7 3202.88  117.99 
  -4   1  -7  307.17   15.80 
  -4   1  -7  307.27   17.10 
  -4   1  -7  319.47   17.40 
   4  -1   7  286.37   17.60 
   4  -1   7  297.07   14.80 
  -5   1  -7 1872.21   70.49 
  -5   1  -7 1956.80   72.99 
  -5   1  -7 1753.12   71.89 
   5  -1   7 1772.72   72.69 
   5  -1   7 1861.91   69.29 
  -6   1  -7  104.69    9.90 
  -6   1  -7   84.29   10.00 
   6  -1   7   98.49    9.50 
   6  -1   7   86.59    8.00 
  -7   1  -7    9.30    4.20 
  -7   1  -7    2.90    2.70 
   7  -1   7    2.20    3.10 
   7  -1   7   13.60    4.40 
  -8   1  -7   14.50    5.40 
   8  -1   7   16.00    4.70 
  -9   1  -7   13.90    6.40 
   9  -1   7   36.50    7.10 
  -6   0   7   94.89   12.00 
   5   0  -7  120.39   12.70 
   5   0  -7  149.99   13.20 
  -5   0   7  125.89   12.70 
  -5   0   7  131.09   13.20 
   4   0  -7  107.59   10.50 
   4   0  -7  109.19   10.20 
  -4   0   7  130.99   11.80 
  -4   0   7  126.99   11.40 
   3   0  -7  242.28   16.10 
   3   0  -7  246.48   15.60 
  -3   0   7  252.07   16.70 
  -3   0   7  234.58   16.80 
   2   0  -7 1405.86   55.89 
   2   0  -7 1422.26   57.49 
  -2   0   7 1380.36   58.09 
  -2   0   7 1416.06   57.19 
   1   0  -7  279.97   15.30 
   1   0  -7  298.17   16.60 
   1   0  -7  272.47   15.90 
  -1   0   7  267.17   15.80 
  -1   0   7  267.67   16.60 
   0   0  -7  168.88   11.30 
   0   0  -7  183.38   12.10 
   0   0  -7  190.48   11.50 
   0   0  -7  183.68   12.50 
   0   0   7  190.28   11.80 
   0   0   7  198.58   12.10 
   0   0   7  195.48   12.90 
  -1   0  -7   12.70    3.70 
  -1   0  -7   18.70    3.10 
  -1   0  -7   12.70    4.20 
  -1   0  -7   11.90    2.80 
   1   0   7   13.30    3.40 
   1   0   7    8.10    2.80 
   1   0   7   10.40    2.80 
  -2   0  -7  169.88   10.70 
  -2   0  -7  128.89    8.20 
  -2   0  -7  147.29   10.30 
   2   0   7  141.59    9.60 
   2   0   7  129.89    9.80 
   2   0   7  130.19   10.40 
  -3   0  -7   84.59    7.50 
  -3   0  -7   81.69    6.30 
  -3   0  -7   82.09    7.40 
   3   0   7   87.69    8.10 
   3   0   7   74.59    7.30 
   3   0   7   73.09    6.50 
  -4   0  -7 1167.38   46.50 
  -4   0  -7 1203.28   47.80 
  -4   0  -7 1181.68   47.90 
   4   0   7 1165.98   48.80 
   4   0   7 1134.79   48.40 
   4   0   7 1166.58   45.60 
  -5   0  -7  447.86   22.60 
  -5   0  -7  434.96   22.70 
   5   0   7  375.86   22.00 
   5   0   7  454.45   20.70 
  -6   0  -7  331.27   19.40 
   6   0   7  294.57   18.60 
   6   0   7  331.37   17.70 
  -7   0  -7   21.50    5.60 
  -7   0  -7   12.70    4.30 
   7   0   7   15.10    4.10 
   7   0   7   13.70    4.60 
  -8   0  -7   14.60    4.60 
   8   0   7   22.30    5.30 
   8   0   7   21.70    5.60 
  -9   0  -7    8.60    4.80 
   9   0   7    4.50    3.80 
   6  -1  -7   11.70    5.90 
  -6   1   7    5.60    5.20 
   5  -1  -7   11.60    4.80 
  -5   1   7   20.50    5.70 
   4  -1  -7   73.39    7.90 
   4  -1  -7   75.69    8.80 
  -4   1   7   81.39    9.00 
  -4   1   7   63.29    9.20 
   3  -1  -7  801.02   36.80 
   3  -1  -7  768.22   35.60 
  -3   1   7  840.62   37.40 
  -3   1   7  806.72   37.90 
   2  -1  -7    9.70    3.20 
   2  -1  -7    1.30    2.50 
  -2   1   7   12.40    6.00 
  -2   1   7    9.50    3.60 
   1  -1  -7  750.22   32.70 
   1  -1  -7  730.93   32.60 
  -1   1   7  734.23   32.80 
  -1   1   7  712.93   33.10 
   0  -1  -7 3266.77  119.49 
   0  -1  -7 3150.68  119.39 
   0  -1  -7 3284.87  119.19 
   0   1   7 3306.77  120.29 
   0   1   7 3322.87  120.19 
  -1  -1  -7  247.88   14.00 
  -1  -1  -7  239.28   14.20 
  -1  -1  -7  232.98   13.20 
   1   1   7  252.97   15.60 
   1   1   7  227.98   17.00 
   1   1   7  240.88   13.70 
  -2  -1  -7  151.48   10.10 
  -2  -1  -7  138.69    9.80 
  -2  -1  -7  117.29   12.00 
   2   1   7  150.18   10.70 
   2   1   7  142.69    9.80 
   2   1   7  141.39   10.20 
  -3  -1  -7  847.92   36.10 
  -3  -1  -7  874.91   36.00 
  -3  -1  -7  875.51   35.00 
   3   1   7  881.71   37.00 
   3   1   7  784.92   39.70 
   3   1   7  887.71   37.40 
  -4  -1  -7    3.20    1.70 
  -4  -1  -7    4.00    2.30 
  -4  -1  -7    0.90    2.00 
   4   1   7    5.10    2.30 
   4   1   7    3.60    1.90 
   4   1   7    3.10    2.20 
  -5  -1  -7  168.08   12.10 
  -5  -1  -7  184.18   12.60 
   5   1   7  173.08   12.70 
   5   1   7  199.68   11.90 
   5   1   7  194.88   13.50 
  -6  -1  -7  161.88   12.20 
  -6  -1  -7  157.08   13.10 
   6   1   7  138.09   10.20 
   6   1   7  118.89   10.70 
  -7  -1  -7 1048.40   46.80 
   7   1   7  993.50   45.70 
   7   1   7 1080.29   44.80 
  -8  -1  -7    1.70    3.70 
   8   1   7    5.60    3.90 
   8   1   7   15.30    4.00 
  -9  -1  -7    2.00    3.90 
   9   1   7   -3.30    3.90 
   9   1   7    4.60    3.80 
   5  -2  -7   10.90    4.10 
  -5   2   7    5.80    4.40 
   4  -2  -7  108.39    9.70 
   4  -2  -7  119.19   11.30 
  -4   2   7   96.09   10.60 
  -4   2   7  115.29   11.20 
   3  -2  -7   92.29    9.20 
   3  -2  -7   81.99    7.90 
  -3   2   7  102.69    9.40 
  -3   2   7   93.69    9.60 
   2  -2  -7 1181.48   49.30 
   2  -2  -7 1131.99   46.30 
  -2   2   7 1136.59   47.70 
  -2   2   7 1143.89   48.70 
   1  -2  -7   85.29    7.20 
   1  -2  -7   63.89    7.50 
  -1   2   7   69.29    7.10 
  -1   2   7   72.19    7.50 
   0  -2  -7  992.70   42.30 
   0  -2  -7  992.70   40.70 
   0   2   7  989.40   40.60 
   0   2   7  976.10   43.00 
   0   2   7 1045.70   42.20 
  -1  -2  -7  942.91   39.90 
  -1  -2  -7  970.00   40.60 
  -1  -2  -7  962.20   39.20 
   1   2   7  965.30   41.40 
   1   2   7  952.70   40.00 
   1   2   7  952.40   38.80 
  -2  -2  -7 2137.39   79.39 
  -2  -2  -7 2047.70   79.49 
  -2  -2  -7 2112.89   79.29 
   2   2   7 2183.58   81.99 
   2   2   7 2251.67   81.19 
   2   2   7 2121.09   79.59 
  -3  -2  -7 2165.68   78.49 
  -3  -2  -7 2058.69   77.89 
  -3  -2  -7 2162.88   78.89 
   3   2   7 2101.29   80.09 
   3   2   7 2118.59   79.49 
   3   2   7 2034.40   79.49 
  -4  -2  -7  249.58   14.20 
  -4  -2  -7  273.67   14.90 
   4   2   7  252.57   14.60 
   4   2   7  241.68   17.90 
   4   2   7  249.08   15.40 
  -5  -2  -7  147.29   11.40 
  -5  -2  -7  123.39    9.90 
   5   2   7  139.99   11.20 
   5   2   7  147.19   10.20 
   5   2   7  122.39   13.80 
  -6  -2  -7   13.30    3.70 
   6   2   7   19.40    4.80 
   6   2   7   31.20    5.20 
   6   2   7   22.00    5.30 
  -7  -2  -7  294.27   18.80 
   7   2   7  294.67   18.70 
   7   2   7  295.67   17.50 
  -8  -2  -7  133.99   12.60 
   8   2   7  133.19   11.30 
   8   2   7  127.09   11.80 
  -9  -2  -7   20.70    7.20 
   9   2   7   38.20    7.60 
   9   2   7   23.40    6.40 
 -10  -2  -7    2.00    5.20 
  10   2   7    8.40    4.80 
   5  -3  -7   25.00    6.40 
  -5   3   7   27.10    6.50 
   4  -3  -7  120.29   12.10 
  -4   3   7  111.89   11.40 
   3  -3  -7  580.14   30.00 
  -3   3   7  533.55   28.30 
   2  -3  -7  252.27   13.50 
   2  -3  -7  252.87   20.60 
  -2   3   7  269.87   15.80 
   1  -3  -7   16.30    4.60 
   1  -3  -7   18.00    3.20 
  -1   3   7   18.20    3.70 
  -1   3   7   19.60    3.90 
   0  -3  -7  123.29   10.40 
   0  -3  -7  124.99    8.30 
   0   3   7  116.79    8.50 
   0   3   7  110.79   10.30 
   0   3   7  117.49    9.10 
  -1  -3  -7   67.59    7.30 
  -1  -3  -7   70.79    6.00 
   1   3   7   67.99    7.40 
   1   3   7   71.79    6.80 
  -2  -3  -7  486.45   22.30 
   2   3   7  526.55   23.60 
   2   3   7  461.05   22.20 
   2   3   7  508.35   25.60 
  -3  -3  -7  459.45   20.70 
   3   3   7  438.26   21.40 
   3   3   7  418.86   21.00 
   3   3   7  444.06   23.00 
  -4  -3  -7 1116.19   43.20 
   4   3   7  920.31   47.20 
   4   3   7 1127.59   45.10 
   4   3   7 1103.19   44.20 
  -5  -3  -7    3.50    2.10 
   5   3   7    6.10    2.50 
   5   3   7    2.80    2.00 
   5   3   7    5.90    2.50 
  -6  -3  -7    7.00    2.30 
   6   3   7    8.70    3.10 
   6   3   7   12.50    3.40 
   6   3   7    8.10    2.60 
  -7  -3  -7  649.54   33.50 
   7   3   7  732.63   34.30 
   7   3   7  744.43   45.70 
   7   3   7  754.12   35.80 
  -8  -3  -7   -3.40    2.00 
   8   3   7    8.10    3.50 
   8   3   7   -1.10    1.70 
  -9  -3  -7   81.39   10.80 
   9   3   7   67.59    8.90 
   9   3   7   93.09    9.90 
 -10  -3  -7   83.59   10.40 
  10   3   7   78.79   10.00 
  10   3   7   67.59   11.00 
   4  -4  -7    2.10    5.80 
  -4   4   7    0.00    3.30 
   3  -4  -7   28.30    7.40 
  -3   4   7   32.50    6.20 
  -3   4   7   50.19    6.70 
   2  -4  -7  437.46   26.10 
  -2   4   7  457.85   23.70 
  -2   4   7  477.25   23.40 
   1  -4  -7  240.08   10.90 
   1  -4  -7  244.78   20.20 
  -1   4   7  270.77   14.70 
  -1   4   7  243.58   16.00 
   0  -4  -7   29.10    3.10 
   0  -4  -7   52.19    6.90 
   0   4   7   33.40    4.70 
   0   4   7   32.90    4.40 
   0   4   7   46.00    7.80 
  -1  -4  -7  218.78   11.30 
  -1  -4  -7  245.28   16.00 
   1   4   7  233.88   13.70 
   1   4   7  252.47   16.60 
   1   4   7  232.28   12.70 
  -2  -4  -7   47.80    4.80 
   2   4   7   49.70    7.00 
   2   4   7   43.50    4.80 
   2   4   7   43.30    5.20 
  -3  -4  -7  103.99    7.70 
   3   4   7  106.09    8.30 
   3   4   7  113.39   10.20 
  -4  -4  -7   84.89    6.70 
   4   4   7   69.69    6.80 
   4   4   7   79.79    7.30 
   4   4   7   77.39    8.40 
  -5  -4  -7  562.94   25.80 
   5   4   7  561.94   26.90 
   5   4   7  558.24   28.90 
   5   4   7  601.54   28.00 
  -6  -4  -7  889.21   38.10 
   6   4   7  856.71   38.20 
   6   4   7  856.91   39.40 
   6   4   7  872.71   38.40 
  -7  -4  -7  155.18   12.30 
   7   4   7  174.38   12.90 
   7   4   7  179.58   13.10 
   7   4   7  180.88   14.00 
  -8  -4  -7    4.90    3.20 
   8   4   7   11.30    3.70 
   8   4   7    4.70    3.60 
  -9  -4  -7    9.90    4.70 
   9   4   7   10.80    4.40 
   9   4   7    4.40    3.10 
 -10  -4  -7   30.30    7.40 
  10   4   7   43.40    9.10 
  10   4   7   38.30    7.40 
   4  -5  -7  127.69   13.20 
  -4   5   7   91.29   10.50 
   3  -5  -7  278.67   20.70 
  -3   5   7  275.77   17.20 
  -3   5   7  283.97   17.70 
   2  -5  -7  473.05   27.70 
  -2   5   7  472.65   23.90 
  -2   5   7  438.06   22.70 
   1  -5  -7    1.10    2.60 
  -1   5   7    2.60    2.10 
  -1   5   7    2.70    2.20 
   0   5   7  481.15   38.70 
   0   5   7  499.25   22.50 
  -1  -5  -7 1752.22   69.89 
   1   5   7 1711.53   70.59 
   1   5   7 1709.43   64.79 
   1   5   7 1609.24   62.99 
  -2  -5  -7  324.67   13.60 
   2   5   7  377.56   22.10 
   2   5   7  310.77   16.20 
   2   5   7  356.86   17.50 
  -3  -5  -7  191.88   10.20 
   3   5   7  184.28   11.60 
   3   5   7  196.88   15.00 
   3   5   7  199.28   11.90 
  -4  -5  -7  140.09    8.80 
   4   5   7  121.99    9.20 
   4   5   7  145.69   12.20 
  -5  -5  -7    1.10    2.20 
   5   5   7    2.70    2.10 
   5   5   7    3.90    2.70 
   5   5   7    4.90    2.50 
  -6  -5  -7   23.10    4.40 
   6   5   7   28.80    5.80 
   6   5   7   33.70    6.30 
   6   5   7   30.00    5.70 
  -7  -5  -7  491.45   25.20 
   7   5   7  490.55   26.10 
   7   5   7  512.25   26.30 
   7   5   7  488.85   26.90 
  -8  -5  -7  179.68   13.80 
   8   5   7  178.38   14.40 
   8   5   7  167.58   14.80 
   8   5   7  182.68   14.00 
  -9  -5  -7  107.79   11.70 
   9   5   7  100.59   13.20 
   9   5   7  122.49   11.90 
  10   5   7   10.20    5.60 
  10   5   7    2.40    3.70 
   3  -6  -7   59.29   11.50 
  -3   6   7   69.89    7.90 
   2  -6  -7    3.40    3.60 
  -2   6   7    6.60    3.40 
  -2   6   7    5.90    3.00 
   1  -6  -7   15.10    5.40 
  -1   6   7   14.10    3.50 
  -1   6   7   11.90    3.40 
   0  -6  -7  132.49   13.40 
   0   6   7  123.39    8.60 
   0   6   7  130.49   13.10 
   0   6   7  133.49    9.50 
  -1  -6  -7    6.10    3.30 
   1   6   7    8.60    2.70 
   1   6   7   10.00    2.40 
   1   6   7    8.90    3.60 
   2   6   7  144.29   13.30 
   2   6   7  145.39    9.70 
   2   6   7  140.59    9.30 
   3   6   7  989.90   39.40 
   3   6   7  935.71   39.30 
   3   6   7  975.50   45.40 
   4   6   7   78.99    7.20 
   4   6   7   74.69    7.20 
   4   6   7   90.79   10.00 
  -5  -6  -7  330.87   16.00 
   5   6   7  324.17   17.80 
   5   6   7  334.57   24.30 
  -6  -6  -7   19.10    4.00 
   6   6   7   23.90    5.30 
   6   6   7   16.20    4.90 
  -7  -6  -7   48.30    6.20 
   7   6   7   47.00    7.90 
   7   6   7   41.70    7.30 
   7   6   7   45.60    8.20 
  -8  -6  -7  107.19   10.30 
   8   6   7  100.99   10.80 
   8   6   7  113.49   11.20 
   8   6   7   99.19   10.60 
   9   6   7   -1.70    2.60 
   9   6   7   -3.50    2.90 
  10   6   7   58.09    9.70 
  10   6   7   48.90    9.60 
   2  -7  -7  376.76   25.80 
  -2   7   7  381.76   19.90 
  -2   7   7  346.67   19.00 
   1  -7  -7   18.70    5.70 
  -1   7   7   11.70    3.50 
  -1   7   7   22.70    3.90 
   0  -7  -7    1.60    3.30 
   0   7   7   -0.80    1.70 
   0   7   7    6.50    2.60 
  -1  -7  -7   34.30    7.00 
   1   7   7   33.40    7.00 
   1   7   7   32.10    4.30 
   1   7   7   45.20    8.70 
  -2  -7  -7    0.10    2.50 
   2   7   7   -2.50    1.40 
   2   7   7   -2.20    1.70 
   2   7   7    0.10    3.10 
   3   7   7    3.80    3.70 
   3   7   7    0.70    1.90 
   3   7   7    3.50    2.10 
   4   7   7   40.10    5.50 
   4   7   7   47.40    5.40 
   4   7   7   38.50    7.80 
   5   7   7  451.35   26.10 
   5   7   7  384.66   25.50 
   5   7   7  410.86   21.10 
  -6  -7  -7  107.89    7.70 
   6   7   7   87.79   10.80 
   6   7   7   91.89    8.80 
  -7  -7  -7    5.10    2.80 
   7   7   7    0.10    2.40 
   7   7   7    0.90    3.80 
   7   7   7    0.10    2.90 
   8   7   7   70.09    8.90 
   8   7   7   78.89    9.50 
   8   7   7   80.79   14.00 
   9   7   7    2.20    3.90 
   9   7   7    6.80    4.50 
   1  -8  -7  195.28   18.10 
  -1   8   7  181.78   11.00 
  -1   8   7  184.18   11.60 
   0  -8  -7  203.38   17.30 
   0   8   7  184.28   11.20 
   0   8   7  176.68   10.20 
  -1  -8  -7   -0.70    3.50 
   1   8   7    6.30    2.10 
   1   8   7    0.90    2.00 
   1   8   7    4.80    4.20 
  -2  -8  -7   33.80    7.50 
   2   8   7   31.20    4.60 
   2   8   7   27.30    4.30 
   2   8   7   22.20    6.30 
   3   8   7   62.79    6.00 
   3   8   7   67.69    6.50 
   3   8   7   66.29   11.20 
   4   8   7   74.49   10.30 
   4   8   7   90.49    8.10 
   4   8   7   86.39    7.60 
   5   8   7  211.68   14.00 
   5   8   7  190.28   12.70 
   5   8   7  198.58   16.80 
   6   8   7  281.67   20.50 
   6   8   7  262.17   16.80 
   6   8   7  307.37   18.60 
   7   8   7   73.79   10.10 
   7   8   7   64.59    8.20 
   8   8   7   28.70    6.10 
   8   8   7   36.90    7.50 
   9   8   7    9.60    8.30 
   9   8   7   -6.80    4.00 
   1   9   7   97.19    7.10 
  -2  -9  -7  376.56   26.30 
   2   9   7  408.06   18.90 
   2   9   7  400.06   18.60 
   2   9   7  377.46   26.80 
  -3  -9  -7    2.90    4.50 
   3   9   7    4.20    2.50 
   3   9   7    7.70    2.60 
   3   9   7    4.70    4.60 
   4   9   7    9.80    3.30 
   4   9   7    9.80    5.10 
   4   9   7   14.90    4.10 
   5   9   7    5.00    3.30 
   5   9   7    1.70    2.40 
   5   9   7   -1.00    4.00 
   6   9   7    1.20    2.80 
   6   9   7   -2.20    3.50 
   6   9   7   -0.90    3.90 
   7   9   7    2.50    3.50 
   7   9   7    3.10    4.10 
   8   9   7   20.30    7.20 
   8   9   7   25.40    6.00 
  -3 -10  -7   72.39   12.30 
   3  10   7   89.19    7.90 
   3  10   7   67.19   12.30 
   3  10   7   96.99    7.30 
   4  10   7   98.79    9.70 
   4  10   7  112.89    8.60 
   4  10   7  133.29   24.80 
   5  10   7   25.40    5.60 
   5  10   7   16.00    4.40 
   5  10   7   17.30   11.90 
   6  10   7    6.00    3.30 
   6  10   7    1.70    5.20 
   3   7  -8   17.50    7.00 
   2   7  -8   42.10    8.30 
   1   7  -8   52.29    8.70 
   0   7  -8   12.80    5.20 
  -1   7  -8   88.89   10.70 
  -2   7  -8   10.80    5.40 
  -3   7  -8    9.90    4.80 
   4   6  -8   24.10    7.10 
   3   6  -8   34.50    7.60 
   2   6  -8  156.88   14.30 
   1   6  -8   45.70    8.10 
   1   6  -8   38.10    7.50 
  -1  -6   8   33.60    8.40 
   0   6  -8   -1.00    3.50 
   0   6  -8    0.20    3.00 
   0  -6   8   -1.60    4.00 
  -1   6  -8    1.80    4.30 
  -1   6  -8    5.50    3.40 
  -2   6  -8  196.28   16.10 
  -2   6  -8  169.48   14.30 
  -3   6  -8  245.28   17.60 
  -4   6  -8   53.99   13.80 
   5   5  -8   28.80   12.70 
   5   5  -8   32.50    6.20 
   4   5  -8  127.19   13.90 
   4   5  -8  159.38   10.30 
  -4  -5   8  134.69   14.10 
   3   5  -8   -0.90    1.60 
   3   5  -8    3.50    2.80 
   3   5  -8   -3.30    3.70 
  -3  -5   8    6.60    3.60 
   2   5  -8   91.39   11.40 
   2   5  -8  102.59   10.80 
  -2  -5   8   89.79   10.20 
   1   5  -8   -4.40    3.60 
   1   5  -8   -1.60    2.90 
   0   5  -8   25.80    6.80 
   0   5  -8   22.50    5.70 
   0  -5   8   14.30    4.50 
  -1   5  -8   20.80    5.70 
  -1   5  -8   33.60    6.40 
   1  -5   8   30.20    6.10 
  -2   5  -8   84.39    9.00 
  -2   5  -8  111.59   10.50 
   2  -5   8  104.09    9.90 
  -3   5  -8    4.50    3.90 
  -3   5  -8   21.80    5.10 
   3  -5   8   11.80    4.10 
  -4   5  -8   41.00    3.40 
  -4   5  -8   36.70    6.70 
   4  -5   8   41.10    3.30 
  -5   5  -8   92.59   10.20 
   5  -5   8   80.79    7.90 
   5   4  -8   30.50    7.30 
   5   4  -8   18.30    5.90 
  -5  -4   8    6.30    6.70 
   4   4  -8  124.69   10.00 
   4   4  -8  111.19   12.40 
  -4  -4   8  114.99   12.70 
   3   4  -8   15.80    6.00 
   3   4  -8   16.30    3.50 
   3   4  -8   10.10    3.90 
  -3  -4   8   23.70    5.50 
   2   4  -8  152.78    8.60 
   2   4  -8  150.18    8.90 
   2   4  -8  165.08   13.90 
  -2  -4   8  135.29   13.00 
   1   4  -8 1173.28   42.60 
   1   4  -8 1205.18   51.99 
   1   4  -8 1198.18   41.70 
   1   4  -8 1193.28   52.19 
  -1  -4   8 1077.39   50.99 
   0   4  -8  390.96   22.40 
   0   4  -8  397.26   22.60 
   0  -4   8  326.27   21.20 
  -1   4  -8   36.40    6.70 
  -1   4  -8   31.40    6.00 
   1  -4   8   23.80    5.60 
  -2   4  -8   94.29    9.70 
  -2   4  -8   78.79    9.00 
   2  -4   8   98.39    9.20 
  -3   4  -8   -1.90    3.40 
  -3   4  -8   -4.70    3.60 
  -4   4  -8   13.70    4.80 
  -4   4  -8   15.30    4.40 
  -4   4  -8   17.50    3.00 
   4  -4   8   16.20    2.70 
   4  -4   8   13.00    4.30 
  -5   4  -8   29.40    4.60 
  -5   4  -8   24.30    5.50 
  -5   4  -8   16.50    6.90 
   5  -4   8   23.80    3.90 
  -6   4  -8   44.80    7.70 
   6  -4   8   43.40    5.30 
   5   3  -8  188.38   17.20 
   5   3  -8  187.28   14.20 
  -5  -3   8  165.08   15.50 
   4   3  -8    5.20    4.60 
   4   3  -8    4.70    2.80 
  -4  -3   8    2.30    3.90 
   3   3  -8   89.59    7.80 
   3   3  -8   88.79   10.30 
  -3  -3   8   86.39   10.20 
   2   3  -8  168.18   10.00 
   2   3  -8  157.78   13.60 
  -2  -3   8  146.99   13.80 
   1   3  -8  298.77   13.90 
   1   3  -8  294.37   13.70 
   1   3  -8  300.97   19.60 
   1   3  -8  297.67   19.00 
  -1  -3   8  251.27   18.40 
   0   3  -8    2.70    1.30 
   0   3  -8    4.00    3.10 
   0   3  -8    2.70    1.20 
   0   3  -8   -0.30    2.10 
   0  -3   8   -2.80    1.70 
  -1   3  -8 1077.59   38.50 
  -1   3  -8 1098.19   46.60 
  -1   3  -8 1114.09   47.00 
  -1   3  -8 1077.19   38.40 
   1  -3   8  954.80   45.70 
  -2   3  -8  189.08   13.30 
  -2   3  -8  173.58    8.10 
  -2   3  -8  177.68    8.80 
  -2   3  -8  162.38   12.80 
   2  -3   8  167.58    8.50 
   2  -3   8  189.38   13.80 
  -3   3  -8  374.36   21.20 
  -3   3  -8  424.06   22.30 
  -3   3  -8  391.66   16.40 
   3  -3   8  397.06   22.20 
   3  -3   8  371.96   17.00 
  -4   3  -8  203.98   14.30 
  -4   3  -8  204.28   14.90 
  -4   3  -8  194.08   10.60 
   4  -3   8  208.18   10.90 
   4  -3   8  207.48   14.80 
  -5   3  -8    8.60    4.00 
  -5   3  -8    7.00    2.80 
  -5   3  -8    2.90    2.90 
   5  -3   8    6.90    2.30 
   5  -3   8    6.20    3.30 
  -6   3  -8    9.50    4.50 
  -6   3  -8   18.20    5.90 
   6  -3   8   20.60    4.00 
  -7   3  -8   26.40    6.70 
   7  -3   8   25.20    5.50 
   5   2  -8   -0.30    2.80 
   5   2  -8    3.80    4.20 
  -5  -2   8    4.50    4.50 
   4   2  -8  372.56   24.10 
   4   2  -8  421.76   22.10 
  -4  -2   8  330.07   23.50 
   3   2  -8   18.60    5.80 
   3   2  -8   29.60    5.60 
  -3  -2   8   20.50    6.00 
   2   2  -8   90.39    9.90 
   2   2  -8  118.09    8.40 
   2   2  -8   99.69    8.70 
  -2  -2   8   94.99   10.40 
   1   2  -8 1185.78   52.39 
   1   2  -8 1310.77   47.50 
   1   2  -8 1204.58   48.00 
  -1  -2   8 1182.98   52.79 
   0   2  -8 1381.96   55.99 
   0   2  -8 1384.66   55.79 
   0   2  -8 1337.17   49.40 
   0   2  -8 1380.36   49.90 
   0  -2   8 1113.69   54.19 
  -1   2  -8  253.97   15.90 
  -1   2  -8  240.88   15.80 
  -1   2  -8  228.68   11.20 
  -1   2  -8  238.98   11.80 
  -2   2  -8   87.79    8.50 
  -2   2  -8  101.79    6.30 
  -2   2  -8  107.39    9.50 
   2  -2   8   85.29    6.50 
   2  -2   8   76.99    8.30 
  -3   2  -8    4.10    2.00 
  -3   2  -8    5.70    2.90 
   3  -2   8    2.40    2.00 
   3  -2   8    3.10    1.40 
  -4   2  -8  644.04   31.00 
  -4   2  -8  672.33   28.00 
  -4   2  -8  693.93   31.80 
   4  -2   8  604.24   31.60 
   4  -2   8  670.13   27.60 
  -5   2  -8   43.90    7.20 
  -5   2  -8   35.40    5.50 
  -5   2  -8   49.10    7.80 
   5  -2   8   50.99    5.20 
   5  -2   8   58.39    7.90 
  -6   2  -8   24.00    6.00 
  -6   2  -8   33.70    9.60 
   6  -2   8   23.20    4.50 
  -7   2  -8  127.89   12.30 
   7  -2   8  112.09    9.80 
  -8   2  -8    7.00    4.60 
   8  -2   8   10.80    4.30 
   5   1  -8    0.90    3.20 
  -5  -1   8    5.50    3.60 
   4   1  -8  105.79   11.00 
   4   1  -8   86.99    9.40 
  -4  -1   8   88.49   10.30 
   3   1  -8   13.70    3.80 
   3   1  -8   10.20    4.10 
  -3  -1   8    9.30    4.30 
  -3  -1   8   15.10    4.70 
   2   1  -8 1144.59   51.59 
   2   1  -8 1224.58   48.60 
  -2  -1   8 1236.38   52.89 
  -2  -1   8 1199.08   51.29 
   1   1  -8  557.74   31.30 
   1   1  -8  715.43   29.60 
   1   1  -8  687.13   30.40 
  -1  -1   8  701.93   33.40 
  -1  -1   8  701.93   40.50 
   0   1  -8  715.73   34.70 
   0   1  -8  601.54   32.20 
   0   1  -8  767.52   30.40 
   0   1  -8  764.42   30.20 
   0  -1   8  677.83   36.10 
   0  -1   8  700.03   33.70 
  -1   1  -8 1664.83   61.49 
  -1   1  -8 1649.33   60.49 
  -1   1  -8 1417.46   64.39 
  -1   1  -8 1725.33   65.59 
   1  -1   8 1572.04   62.09 
   1  -1   8 1728.63   64.89 
   1  -1   8 1699.43   66.59 
  -2   1  -8   18.70    3.30 
  -2   1  -8   11.90    3.50 
   2  -1   8    5.30    2.90 
   2  -1   8   17.60    4.60 
   2  -1   8   14.30    3.30 
  -3   1  -8  322.07   18.10 
  -3   1  -8  260.87   24.80 
  -3   1  -8  305.17   15.00 
   3  -1   8  274.17   17.80 
   3  -1   8  312.67   15.90 
  -4   1  -8   69.09    7.50 
  -4   1  -8   72.09    7.50 
  -4   1  -8   60.19    6.30 
   4  -1   8   76.79    6.50 
   4  -1   8   64.99    7.40 
  -5   1  -8  732.43   33.40 
  -5   1  -8  678.53   32.70 
   5  -1   8  637.34   33.00 
   5  -1   8  710.73   29.80 
  -6   1  -8   10.10    4.50 
  -6   1  -8    6.60    3.40 
   6  -1   8    5.30    2.80 
   6  -1   8   10.80    3.70 
  -7   1  -8  120.19   12.30 
  -7   1  -8  132.59   12.60 
   7  -1   8  143.49   12.60 
   7  -1   8  156.88   11.40 
  -8   1  -8   -6.70    3.10 
   8  -1   8   -1.40    2.60 
   5   0  -8   67.49    8.90 
  -5   0   8   56.79    9.60 
   4   0  -8   62.89    8.10 
   4   0  -8   43.40    7.60 
  -4   0   8   51.19    9.40 
  -4   0   8   59.79    9.80 
   3   0  -8  280.67   17.60 
   3   0  -8  271.97   19.00 
  -3   0   8  284.17   18.70 
  -3   0   8  291.97   19.40 
   2   0  -8  501.05   24.50 
   2   0  -8  471.45   25.70 
  -2   0   8  482.95   25.60 
  -2   0   8  492.25   26.80 
   1   0  -8  100.79    8.50 
   1   0  -8   92.19    9.00 
  -1   0   8  119.19   10.30 
  -1   0   8   92.29    9.00 
   0   0  -8 2435.76   86.19 
   0   0  -8 2078.99   87.39 
   0   0  -8 2277.57   85.99 
   0   0   8 2392.16   87.19 
  -1   0  -8 1888.11   70.99 
  -1   0  -8 1872.91   74.19 
  -1   0  -8 1865.31   74.29 
   1   0   8 1989.10   73.89 
   1   0   8 1944.61   73.49 
  -2   0  -8  292.67   17.20 
  -2   0  -8  310.07   17.40 
   2   0   8  328.77   17.70 
   2   0   8  294.07   16.70 
   2   0   8  294.27   18.10 
  -3   0  -8   63.69    6.80 
  -3   0  -8   72.19    6.10 
  -3   0  -8   80.39    7.60 
   3   0   8   49.20    6.90 
   3   0   8   64.49    7.10 
   3   0   8   64.39    8.90 
  -4   0  -8 1229.38   49.30 
  -4   0  -8 1176.98   48.70 
  -4   0  -8 1232.08   47.40 
   4   0   8 1214.28   50.29 
   4   0   8 1017.90   49.10 
   4   0   8 1194.98   47.00 
  -5   0  -8   80.39    8.10 
  -5   0  -8   84.59    8.40 
   5   0   8   87.39    7.60 
   5   0   8   70.79    8.20 
  -6   0  -8    8.70    4.40 
  -6   0  -8   13.40    4.20 
   6   0   8    7.00    3.30 
   6   0   8    1.90    2.90 
  -7   0  -8    1.60    3.00 
   7   0   8   -0.60    2.10 
   7   0   8   -0.50    2.90 
  -8   0  -8  172.68   15.00 
   8   0   8  191.98   15.50 
   8   0   8  171.18   13.30 
  -9   0  -8  174.88   15.90 
   9   0   8  190.08   15.20 
  -5   1   8   52.19    9.40 
   4  -1  -8  155.58   13.80 
  -4   1   8  161.08   14.30 
  -4   1   8  170.78   14.80 
   3  -1  -8    0.20    2.60 
   3  -1  -8   -2.30    2.30 
  -3   1   8    0.30    3.00 
  -3   1   8   -5.30    2.30 
   2  -1  -8   81.49    8.70 
   2  -1  -8   70.19    7.70 
  -2   1   8   77.39    8.40 
  -2   1   8   97.69    9.70 
   1  -1  -8  660.73   30.60 
   1  -1  -8  620.54   30.10 
  -1   1   8  648.84   30.30 
  -1   1   8  637.94   31.40 
   0  -1  -8   40.10    5.30 
   0  -1  -8   35.40    5.90 
   0   1   8   47.90    5.90 
   0   1   8   38.10    5.00 
   0   1   8   32.60    5.80 
  -1  -1  -8    2.80    2.10 
  -1  -1  -8    3.50    2.30 
  -1  -1  -8    8.60    2.50 
   1   1   8    5.70    2.70 
   1   1   8    6.00    2.60 
   1   1   8    9.50    3.00 
  -2  -1  -8 1794.72   67.79 
  -2  -1  -8 1817.32   70.19 
   2   1   8 1732.13   70.29 
   2   1   8 1829.82   71.29 
   2   1   8 1880.61   69.99 
  -3  -1  -8  223.28   13.60 
  -3  -1  -8  217.98   12.40 
  -3  -1  -8  218.48   13.60 
   3   1   8  171.08   16.40 
   3   1   8  198.78   13.20 
   3   1   8  222.78   14.00 
  -4  -1  -8 1380.86   55.19 
  -4  -1  -8 1223.78   53.89 
   4   1   8 1415.16   56.29 
   4   1   8 1378.46   54.39 
   4   1   8 1429.96   56.59 
  -5  -1  -8   45.50    5.90 
  -5  -1  -8   55.99   12.50 
   5   1   8   60.69    6.50 
   5   1   8   54.09    7.20 
   5   1   8   50.99    7.90 
  -6  -1  -8 1068.19   53.89 
   6   1   8 1091.09   47.90 
   6   1   8 1127.49   45.70 
  -7  -1  -8  668.63   32.80 
   7   1   8  578.94   31.70 
   7   1   8  675.73   33.30 
  -8  -1  -8    3.20    3.80 
   8   1   8   -1.60    3.00 
   8   1   8    0.80    2.70 
  -9  -1  -8    7.00    5.60 
   9   1   8    8.40    3.60 
   9   1   8   11.90    4.70 
   5  -2  -8   -0.20    4.40 
  -5   2   8    5.20    4.40 
   4  -2  -8   18.20    5.30 
  -4   2   8   14.70    4.50 
   3  -2  -8  521.75   26.50 
   3  -2  -8  554.64   29.40 
  -3   2   8  580.64   30.20 
  -3   2   8  553.54   28.80 
   2  -2  -8  663.03   30.60 
   2  -2  -8  676.43   33.50 
  -2   2   8  712.23   32.30 
  -2   2   8  582.64   42.10 
   1  -2  -8    4.90    2.40 
   1  -2  -8   -2.10    2.20 
  -1   2   8    4.50    2.30 
  -1   2   8    0.90    2.20 
   0  -2  -8   13.30    3.90 
   0  -2  -8    7.60    2.90 
   0   2   8    9.80    3.10 
   0   2   8    7.60    2.80 
   0   2   8   14.80    4.00 
  -1  -2  -8   51.29    6.00 
  -1  -2  -8   52.39    6.40 
   1   2   8   38.00    6.40 
   1   2   8   54.49    6.80 
   1   2   8   45.30    5.90 
  -2  -2  -8  196.48   12.70 
   2   2   8  194.88   13.90 
   2   2   8  209.78   13.60 
   2   2   8  201.78   13.40 
   3   2   8    7.30    3.00 
   3   2   8   12.10    4.20 
   3   2   8    8.20    3.10 
  -4  -2  -8 2864.11  107.39 
   4   2   8 2966.00  108.79 
   4   2   8 2840.42  108.59 
   4   2   8 2981.50  109.19 
  -5  -2  -8  308.87   18.30 
   5   2   8  341.57   19.80 
   5   2   8  384.26   20.40 
   5   2   8  355.46   18.90 
  -6  -2  -8    0.80    2.20 
   6   2   8    2.40    2.10 
   6   2   8   -1.30    2.40 
   6   2   8    4.80    2.40 
  -7  -2  -8  300.37   18.90 
   7   2   8  298.87   18.90 
   7   2   8  272.77   18.60 
  -8  -2  -8   49.10    8.30 
   8   2   8   35.30    6.60 
   8   2   8   50.19    8.30 
  -9  -2  -8   14.40    5.90 
   9   2   8   34.70    7.10 
   9   2   8   13.10    4.60 
   4  -3  -8    4.80    6.80 
  -4   3   8    3.20    3.80 
   3  -3  -8   -1.50    2.70 
   3  -3  -8    4.10    3.30 
  -3   3   8   -1.10    3.20 
  -3   3   8    0.80    3.20 
   2  -3  -8   35.50    5.40 
   2  -3  -8   39.50    7.50 
  -2   3   8   40.40    7.10 
   1  -3  -8  265.97   21.60 
   1  -3  -8  261.67   14.50 
  -1   3   8  249.88   19.30 
   0  -3  -8   21.70    3.80 
   0  -3  -8   26.70    5.50 
   0   3   8   23.60    5.10 
   0   3   8   18.40    4.30 
  -1  -3  -8  396.36   19.80 
  -1  -3  -8  418.36   22.70 
   1   3   8  401.26   20.00 
   1   3   8  412.86   21.30 
   1   3   8  388.76   23.00 
  -2  -3  -8  429.86   21.40 
   2   3   8  451.75   24.80 
   2   3   8  451.95   21.80 
   2   3   8  454.65   22.90 
  -3  -3  -8   46.10    5.40 
   3   3   8   42.00    6.60 
   3   3   8   49.40    5.60 
   3   3   8   43.30    5.90 
  -4  -3  -8  206.38   12.50 
   4   3   8  194.98   14.00 
   4   3   8  196.08   13.30 
   4   3   8  214.78   13.60 
  -5  -3  -8  275.27   15.70 
   5   3   8  285.87   16.90 
   5   3   8  280.87   16.70 
   5   3   8  244.88   16.50 
  -6  -3  -8   17.10    4.00 
   6   3   8   12.40    4.00 
   6   3   8   18.70    4.50 
   6   3   8   11.60    3.50 
  -7  -3  -8  249.48   17.50 
   7   3   8  284.47   18.90 
   7   3   8  305.57   17.80 
   7   3   8  295.97   18.70 
  -8  -3  -8    7.50    4.00 
   8   3   8    4.90    3.70 
   8   3   8    6.10    3.60 
  -9  -3  -8   15.40    6.00 
   9   3   8   18.20    5.20 
   9   3   8   17.70    6.10 
 -10  -3  -8  110.49   13.00 
  10   3   8  136.59   12.90 
  10   3   8  113.69   12.00 
   4  -4  -8   21.50    6.60 
  -4   4   8   22.10    5.60 
   3  -4  -8   15.50    6.30 
  -3   4   8   18.20    5.60 
  -3   4   8   18.90    4.70 
   2  -4  -8    4.10    4.00 
  -2   4   8    6.50    3.40 
  -2   4   8    3.50    3.20 
   1  -4  -8   -1.30    1.80 
   1  -4  -8    2.20    2.60 
  -1   4   8   -3.60    2.10 
  -1   4   8    5.90    3.00 
   0  -4  -8 1355.16   53.29 
   0  -4  -8 1419.16   77.49 
   0   4   8 1315.97   68.89 
   0   4   8 1468.85   55.89 
   0   4   8 1536.75   75.69 
  -1  -4  -8   83.19    6.70 
  -1  -4  -8   94.39    9.90 
   1   4   8   87.89    8.10 
   1   4   8   98.69    7.80 
   1   4   8  114.39   11.00 
  -2  -4  -8 2038.00   74.29 
   2   4   8 1931.91   76.19 
   2   4   8 2006.70   80.49 
  -3  -4  -8   83.69    7.20 
   3   4   8   68.29    6.90 
   3   4   8   77.39    9.00 
   3   4   8   85.09    7.90 
  -4  -4  -8   12.60    3.20 
   4   4   8    4.80    2.60 
   4   4   8   17.90    3.90 
   4   4   8   15.00    4.50 
  -5  -4  -8   12.50    3.60 
   5   4   8   14.90    4.00 
   5   4   8   10.70    3.50 
   5   4   8   11.30    3.70 
  -6  -4  -8  286.47   16.70 
   6   4   8  279.77   17.90 
   6   4   8  282.57   18.60 
   6   4   8  267.57   17.10 
  -7  -4  -8   46.30    7.40 
   7   4   8   48.30    8.20 
   7   4   8   54.69    7.00 
   7   4   8   59.89    7.90 
  -8  -4  -8  196.98   14.60 
   8   4   8  162.48   13.10 
   8   4   8  152.18   13.60 
  -9  -4  -8   86.29   10.60 
   9   4   8   72.09   11.00 
   9   4   8   76.09    9.30 
  10   4   8   30.30    8.00 
  10   4   8   33.10    7.50 
   3  -5  -8   21.50    6.60 
  -3   5   8   18.00    5.40 
   2  -5  -8  685.13   36.30 
  -2   5   8  619.44   30.80 
  -2   5   8  671.73   32.30 
   1  -5  -8  427.76   26.60 
  -1   5   8  464.45   23.80 
  -1   5   8  453.35   22.70 
   0  -5  -8   15.50    5.30 
   0   5   8   22.70    4.00 
   0   5   8   38.40    7.60 
   0   5   8   26.80    5.10 
  -1  -5  -8    4.30    3.30 
   1   5   8   -4.60    1.80 
   1   5   8   -2.60    1.40 
   1   5   8    1.20    1.80 
  -2  -5  -8   71.79    5.10 
   2   5   8   66.59    9.00 
   2   5   8   69.99    8.20 
   2   5   8   80.29    7.60 
  -3  -5  -8  381.26   17.60 
   3   5   8  361.56   19.10 
   3   5   8  377.06   23.20 
   3   5   8  374.46   19.60 
  -4  -5  -8  390.26   19.10 
   4   5   8  396.46   23.70 
   4   5   8  404.36   20.70 
  -5  -5  -8   61.49    6.20 
   5   5   8   55.29    6.60 
   5   5   8   72.29    7.50 
   5   5   8   61.19    8.60 
  -6  -5  -8    6.00    3.00 
   6   5   8    5.60    2.60 
   6   5   8    3.20    3.30 
   6   5   8    5.70    3.30 
  -7  -5  -8   21.60    4.50 
   7   5   8   25.60    6.20 
   7   5   8   34.80    6.60 
   7   5   8   36.20    6.90 
  -8  -5  -8   13.00    4.60 
   8   5   8   13.70    5.40 
   8   5   8    4.70    5.90 
   8   5   8   17.60    5.90 
  -9  -5  -8   -5.80    6.70 
   9   5   8    1.20    3.60 
   9   5   8    1.90    3.10 
  10   5   8    0.20    4.00 
  10   5   8    2.20    4.30 
   2  -6  -8   60.19   10.30 
  -2   6   8   42.30    7.20 
  -2   6   8   52.79    7.70 
   1  -6  -8  607.24   33.90 
  -1   6   8  582.74   28.10 
  -1   6   8  533.65   26.50 
   0  -6  -8   23.00    5.90 
   0   6   8   25.80    4.50 
  -1  -6  -8    3.10    3.10 
   1   6   8    0.80    2.70 
  -2  -6  -8    2.70    2.60 
   2   6   8    1.10    3.20 
   2   6   8    2.60    2.30 
   2   6   8    7.00    2.40 
   3   6   8   22.80    4.20 
   3   6   8   21.60    4.30 
   3   6   8   27.00    6.40 
  -4  -6  -8   16.90    3.40 
   4   6   8    9.90    3.20 
   4   6   8   23.00    4.70 
   4   6   8   11.60    4.10 
  -5  -6  -8    2.70    2.10 
   5   6   8    0.90    2.80 
  -6  -6  -8  174.38   11.40 
   6   6   8  162.98   13.30 
   6   6   8  172.38   14.60 
   6   6   8  165.98   12.50 
  -7  -6  -8  426.86   22.80 
   7   6   8  472.85   26.50 
   7   6   8  427.26   24.20 
   7   6   8  476.55   26.70 
  -8  -6  -8   47.70    8.90 
   8   6   8   51.69    9.90 
   8   6   8   52.79    8.60 
   8   6   8   69.09    9.20 
   9   6   8   20.30    6.30 
   9   6   8   20.30    6.50 
   1  -7  -8  256.37   20.80 
  -1   7   8  231.88   14.90 
  -1   7   8  221.08   14.10 
   0  -7  -8  133.99   14.10 
   0   7   8  120.49    9.60 
   0   7   8  113.49    8.90 
  -1  -7  -8  235.98   18.60 
   1   7   8  194.78   17.30 
   1   7   8  212.08   12.20 
   1   7   8  221.08   13.50 
  -2  -7  -8    3.50    3.40 
   2   7   8    6.10    2.60 
   2   7   8    5.10    2.40 
   2   7   8    7.50    4.30 
   3   7   8   36.80    4.90 
   3   7   8   37.10    8.40 
   3   7   8   31.90    5.40 
   4   7   8  270.87   15.70 
   4   7   8  245.28   15.50 
   4   7   8  273.27   20.60 
   5   7   8   10.90    3.90 
   5   7   8   -1.50    3.00 
   6   7   8    1.30    2.40 
   6   7   8   -1.50    2.70 
   7   7   8    0.70    3.50 
   7   7   8    5.30    3.20 
   7   7   8    5.50    4.80 
   8   7   8  190.38   15.20 
   8   7   8  162.08   15.20 
   9   7   8    0.90    3.60 
   9   7   8    1.00    3.90 
   0  -8  -8    8.70    5.50 
   0   8   8    8.50    2.60 
   0   8   8    6.70    3.30 
  -1  -8  -8  107.09   12.60 
   1   8   8   92.79   12.10 
   1   8   8   99.79    8.20 
   1   8   8   78.09    7.00 
  -2  -8  -8  153.78   15.90 
   2   8   8  161.38   10.70 
   2   8   8  163.08   11.20 
   2   8   8  171.28   16.20 
  -3  -8  -8  166.58   15.50 
   3   8   8  146.99   10.90 
   3   8   8  162.58   15.90 
   3   8   8  170.68   11.30 
   4   8   8  273.47   21.10 
   4   8   8  262.77   15.90 
   4   8   8  250.07   15.20 
   5   8   8 1007.70   42.50 
   5   8   8  985.50   49.50 
   5   8   8  971.30   43.30 
   6   8   8   31.00    6.70 
   6   8   8   39.80    8.30 
   6   8   8   37.20    6.50 
   7   8   8   38.00    8.40 
   7   8   8   32.60    6.40 
   8   8   8   -3.90    3.10 
   8   8   8    9.20    4.90 
  -2  -9  -8   14.40    6.40 
   2   9   8   20.60    3.90 
   2   9   8    9.00    5.80 
   2   9   8   15.00    4.10 
  -3  -9  -8  155.58   19.10 
   3   9   8  186.28   18.00 
   3   9   8  177.78   12.00 
   4   9   8   72.29    8.20 
   4   9   8   60.99   12.10 
   5   9   8   88.89   12.10 
   5   9   8   89.99    9.50 
   6   9   8    5.20    3.20 
   6   9   8    5.80    5.20 
   7   9   8   11.50    5.50 
   7   9   8   -2.60    3.30 
   1   7  -9  149.99   15.20 
  -1   7  -9   57.49    9.80 
   3   6  -9    6.50    6.10 
   2   6  -9  127.59   14.70 
   1   6  -9    9.90    5.30 
   0   6  -9   18.90    6.60 
  -1   6  -9   34.00    7.40 
  -2   6  -9   27.60    6.90 
  -3   6  -9    7.10    4.50 
   4   5  -9   -3.90    4.40 
   4   5  -9    2.50    5.40 
   3   5  -9    8.40    5.50 
   3   5  -9    0.60    2.20 
   2   5  -9   30.60    7.70 
  -2  -5   9   35.10    7.50 
   1   5  -9  122.19   12.30 
   1   5  -9  131.99   13.20 
  -1  -5   9  124.89   12.40 
   0   5  -9   74.79    9.50 
   0   5  -9   84.89   11.00 
   0  -5   9   93.59   10.50 
  -1   5  -9  466.35   27.40 
  -1   5  -9  500.85   27.80 
   1  -5   9  468.15   27.20 
  -2   5  -9   12.00    4.40 
  -2   5  -9   14.80    5.20 
  -3   5  -9    3.60    3.70 
  -4   5  -9   27.50    6.50 
   4   4  -9  325.97   18.40 
   4   4  -9  267.27   22.40 
  -4  -4   9  344.27   23.50 
   3   4  -9    5.30    4.80 
   3   4  -9    1.80    2.70 
  -3  -4   9    6.50    4.70 
   2   4  -9    9.80    2.60 
   2   4  -9    7.90    4.30 
   2   4  -9   11.40    2.90 
  -2  -4   9    6.30    4.60 
   1   4  -9   24.00    2.50 
   1   4  -9   17.30    5.00 
  -1  -4   9   16.00    4.90 
   0   4  -9  266.87   18.70 
   0   4  -9  241.78   18.10 
   0  -4   9  241.38   17.80 
  -1   4  -9    6.00    4.00 
  -1   4  -9   18.10    5.30 
   1  -4   9    9.50    3.90 
  -2   4  -9  240.58   16.50 
  -2   4  -9  221.28   16.60 
   2  -4   9  223.48   16.10 
  -3   4  -9   55.29    8.70 
  -3   4  -9   66.69    8.60 
   3  -4   9   53.89    7.10 
  -4   4  -9   10.30    2.20 
  -4   4  -9    6.80    4.00 
  -4   4  -9    3.10    4.30 
   4  -4   9    9.00    3.90 
  -5   4  -9  133.69   12.70 
   5  -4   9  163.68    9.60 
  -6   4  -9   15.00    6.00 
   6  -4   9   24.30    4.30 
   4   3  -9   38.80    6.40 
   4   3  -9   27.90    7.90 
  -4  -3   9   37.80    8.10 
   3   3  -9  320.77   21.60 
   3   3  -9  288.77   16.90 
  -3  -3   9  283.57   20.50 
   2   3  -9  148.59   10.60 
   2   3  -9  172.28   14.80 
   2   3  -9  149.19    9.90 
  -2  -3   9  124.79   12.60 
   1   3  -9    6.90    3.30 
   1   3  -9    5.10    2.20 
   1   3  -9    5.00    1.90 
  -1  -3   9    4.10    3.80 
   0   3  -9    8.10    2.10 
   0   3  -9   14.10    4.60 
   0   3  -9    2.80    1.70 
   0  -3   9    3.40    3.20 
  -1   3  -9   17.10    4.80 
  -1   3  -9   14.80    2.10 
  -1   3  -9   10.30    2.00 
  -1   3  -9    9.90    4.60 
   1  -3   9   11.40    4.00 
  -2   3  -9    2.50    3.10 
  -2   3  -9    2.40    1.30 
  -2   3  -9   -1.60    3.60 
  -2   3  -9    6.80    2.20 
  -3   3  -9    1.70    2.70 
  -3   3  -9   16.00    4.20 
   3  -3   9    2.20    1.70 
   3  -3   9    5.80    2.80 
  -4   3  -9    3.30    2.30 
  -4   3  -9    2.40    2.10 
  -4   3  -9   -3.80    2.70 
   4  -3   9   -1.10    1.60 
   4  -3   9    1.20    2.60 
  -5   3  -9   45.40    5.70 
  -5   3  -9   63.19    8.60 
  -5   3  -9   44.90    7.80 
   5  -3   9   50.89    5.30 
   5  -3   9   45.00    7.40 
  -6   3  -9    6.20    3.80 
   6  -3   9   16.10    4.00 
  -7   3  -9    4.50    4.30 
   7  -3   9    7.20    3.50 
   4   2  -9    9.40    5.90 
   4   2  -9    9.10    4.50 
  -4  -2   9   -1.90    4.40 
   3   2  -9   38.70    8.00 
   3   2  -9   37.00    6.30 
  -3  -2   9   44.80    8.40 
   2   2  -9   20.40    4.10 
   2   2  -9   24.70    5.80 
  -2  -2   9   22.70    6.20 
   1   2  -9  130.19    9.80 
   1   2  -9  137.29    9.30 
  -1  -2   9  154.48   13.40 
   0   2  -9 1515.55   62.89 
   0   2  -9 1435.46   55.49 
   0   2  -9 1530.35   56.19 
   0  -2   9 1454.25   62.69 
  -1   2  -9   27.60    3.30 
  -1   2  -9   17.20    4.60 
  -1   2  -9   21.10    3.30 
  -1   2  -9   18.50    5.20 
   1  -2   9   26.40    5.70 
  -2   2  -9  837.82   39.10 
  -2   2  -9  873.81   33.60 
  -2   2  -9  927.11   39.50 
  -2   2  -9  872.91   33.30 
   2  -2   9  747.23   33.80 
   2  -2   9  797.22   39.30 
  -3   2  -9   38.80    6.60 
  -3   2  -9   40.70    6.90 
  -3   2  -9   46.10    4.70 
   3  -2   9   30.80    6.50 
   3  -2   9   34.60    4.60 
  -4   2  -9   92.19   10.30 
  -4   2  -9  107.39   10.20 
   4  -2   9   93.99    9.70 
   4  -2   9   95.19    8.20 
  -5   2  -9   18.60    5.00 
  -5   2  -9   16.20    5.00 
  -5   2  -9   21.50    4.50 
   5  -2   9   16.90    5.00 
   5  -2   9   12.40    3.40 
  -6   2  -9   11.30    5.20 
   6  -2   9    7.50    4.00 
  -7   2  -9   38.80    7.70 
   7  -2   9   37.40    6.50 
  -8   2  -9    5.00    4.40 
   4   1  -9   34.20    6.80 
  -4  -1   9   39.00    6.80 
   3   1  -9    6.50    3.30 
   3   1  -9   13.00    4.90 
  -3  -1   9   13.50    4.90 
   2   1  -9   19.40    5.20 
   2   1  -9   26.00    4.80 
  -2  -1   9   12.90    4.70 
  -2  -1   9   10.80    5.90 
   1   1  -9  248.18   18.20 
   1   1  -9  325.67   16.80 
  -1  -1   9  296.97   19.80 
  -1  -1   9  310.57   18.80 
   0   1  -9    5.90    2.50 
   0   1  -9    6.50    2.90 
   0   1  -9    1.40    2.10 
   0  -1   9    3.10    3.30 
   0  -1   9   -1.20    2.50 
  -1   1  -9 1294.27   57.49 
  -1   1  -9 1423.16   53.59 
  -1   1  -9 1464.45   55.39 
   1  -1   9 1456.65   57.59 
   1  -1   9 1283.77   64.29 
  -2   1  -9  461.25   19.90 
  -2   1  -9  447.26   23.90 
  -2   1  -9  466.75   25.60 
   2  -1   9  414.56   21.10 
   2  -1   9  383.36   23.50 
  -3   1  -9   82.89    8.30 
  -3   1  -9   94.69    9.00 
  -3   1  -9   97.89    9.20 
   3  -1   9   75.19   14.30 
   3  -1   9   81.09    8.90 
  -4   1  -9    4.90    3.00 
  -4   1  -9    2.00    2.10 
  -4   1  -9   -2.60    1.90 
   4  -1   9   -1.70    2.80 
   4  -1   9    0.40    1.40 
  -5   1  -9  728.73   35.10 
  -5   1  -9  815.02   36.60 
   5  -1   9  653.33   35.70 
   5  -1   9  775.52   32.60 
  -6   1  -9  113.39   11.10 
  -6   1  -9  102.89   11.70 
   6  -1   9  107.59   11.00 
   6  -1   9   98.29    8.80 
  -7   1  -9   98.89   12.20 
   7  -1   9  112.89   15.50 
   7  -1   9  107.39   11.70 
  -8   1  -9    2.90    3.90 
   8  -1   9    4.70    3.50 
   4   0  -9  178.48   14.80 
  -4   0   9  158.38   15.10 
   3   0  -9  429.86   35.30 
   3   0  -9  497.25   25.70 
  -3   0   9  405.06   26.70 
  -3   0   9  502.45   27.20 
   2   0  -9   40.60    6.70 
   2   0  -9   44.80    7.50 
  -2   0   9   36.60    7.40 
  -2   0   9   47.10    7.70 
   1   0  -9  306.07   17.70 
   1   0  -9  273.17   18.20 
  -1   0   9  307.47   18.50 
  -1   0   9  325.87   20.40 
   0   0  -9  609.74   31.90 
   0   0  -9  665.03   30.20 
   0   0   9  670.13   33.00 
   0   0   9  708.83   31.80 
  -1   0  -9  923.91   38.60 
  -1   0  -9  865.41   41.40 
  -1   0  -9  979.40   40.10 
   1   0   9  967.30   41.40 
   1   0   9  973.90   41.00 
   1   0   9  990.80   43.60 
  -2   0  -9    2.30    2.30 
  -2   0  -9    3.30    1.90 
   2   0   9    5.60    2.60 
   2   0   9    1.10    2.40 
   2   0   9    1.20    2.40 
  -3   0  -9  371.66   22.10 
  -3   0  -9  461.05   20.80 
   3   0   9  432.36   22.30 
   3   0   9  456.35   25.00 
   3   0   9  432.96   23.50 
  -4   0  -9  488.85   25.10 
   4   0   9  484.65   24.10 
   4   0   9  496.45   26.70 
  -5   0  -9   -1.30    2.60 
   5   0   9    4.30    2.90 
   5   0   9    0.60    2.90 
  -6   0  -9   86.39    9.20 
   6   0   9   88.29    8.60 
   6   0   9   91.49   10.10 
  -7   0  -9  278.47   18.50 
   7   0   9  260.67   19.20 
   7   0   9  281.97   19.30 
   8   0   9    4.40    4.50 
   8   0   9    3.40    3.60 
  -9   0  -9   60.29    9.90 
   9   0   9   40.30    7.70 
   4  -1  -9   -2.40    2.90 
  -4   1   9    0.70    4.80 
   3  -1  -9  114.59   18.10 
   3  -1  -9  176.98   13.70 
  -3   1   9  171.38   14.10 
  -3   1   9  144.29   13.90 
   2  -1  -9  139.29   11.80 
   2  -1  -9  137.99   11.40 
  -2   1   9  127.79   12.80 
  -2   1   9  127.69   11.50 
   1  -1  -9 1158.38   50.99 
   1  -1  -9 1202.28   50.89 
  -1   1   9 1190.08   52.59 
  -1   1   9 1254.57   51.29 
   0  -1  -9  169.88   12.40 
   0  -1  -9  166.98   12.90 
   0   1   9  177.98   12.60 
  -1  -1  -9   -0.50    1.80 
  -1  -1  -9    1.50    2.90 
   1   1   9    0.40    2.00 
   1   1   9    3.50    2.50 
   1   1   9    3.60    2.80 
  -2  -1  -9  281.97   17.30 
   2   1   9  285.67   17.10 
   2   1   9  291.97   17.90 
   2   1   9  302.27   18.50 
  -3  -1  -9   32.30    5.50 
   3   1   9   26.80    5.20 
   3   1   9   32.80    6.10 
   3   1   9   37.00    6.90 
  -4  -1  -9   22.40    5.00 
   4   1   9   32.70    6.20 
   4   1   9   44.80    7.80 
   4   1   9   40.20    6.80 
  -5  -1  -9  238.88   16.00 
   5   1   9  278.37   17.90 
   5   1   9  270.97   16.10 
  -6  -1  -9 1357.06   57.69 
   6   1   9 1373.36   59.19 
   6   1   9 1422.86   56.59 
  -7  -1  -9  205.58   15.50 
   7   1   9  215.68   14.50 
   7   1   9  210.38   16.70 
  -8  -1  -9   12.50    5.50 
   8   1   9   23.00    5.30 
   8   1   9   23.90    6.80 
  -9  -1  -9   10.40    8.50 
   4  -2  -9   59.59   10.90 
  -4   2   9   64.69   12.70 
   3  -2  -9   -2.70    2.60 
  -3   2   9    0.20    3.00 
   2  -2  -9  107.19   11.00 
  -2   2   9  105.79   10.30 
  -2   2   9  126.29   12.10 
   1  -2  -9    6.70    6.30 
   1  -2  -9   13.40    3.90 
  -1   2   9   13.60    6.00 
  -1   2   9    2.80    6.50 
   0  -2  -9  342.57   19.40 
   0  -2  -9  343.27   20.50 
   0   2   9  347.27   20.10 
  -1  -2  -9   62.69    7.50 
  -1  -2  -9   81.79    8.00 
   1   2   9   64.39    7.10 
   1   2   9   63.49    7.50 
   1   2   9   54.69    7.40 
  -2  -2  -9   16.90    4.00 
   2   2   9    2.30    2.50 
   2   2   9    7.40    3.60 
   2   2   9   13.50    4.10 
  -3  -2  -9  622.74   29.30 
   3   2   9  614.74   29.60 
   3   2   9  600.14   30.60 
   3   2   9  642.54   30.80 
  -4  -2  -9  170.28   12.20 
   4   2   9  188.98   13.50 
   4   2   9  169.18   13.00 
   4   2   9  176.78   13.40 
  -5  -2  -9   21.90    4.60 
   5   2   9   20.90    8.10 
   5   2   9   13.50    3.80 
   5   2   9   13.90    4.50 
  -6  -2  -9    9.50    3.50 
   6   2   9   11.80    3.80 
   6   2   9   20.20    5.00 
  -7  -2  -9    2.90    3.80 
   7   2   9    9.70    4.10 
   7   2   9    6.80    3.40 
  -8  -2  -9    7.90    4.60 
   8   2   9    8.60    3.60 
   8   2   9   20.90    6.00 
  -9  -2  -9    1.70    4.30 
   9   2   9    2.80    3.30 
   9   2   9   -5.90    4.00 
   3  -3  -9   10.60    5.50 
  -3   3   9   12.30    5.40 
   2  -3  -9  156.78   11.90 
   2  -3  -9  172.58   14.70 
  -2   3   9  156.28   13.50 
  -2   3   9  172.58   13.30 
   1  -3  -9    0.40    2.50 
  -1   3   9    5.60    2.90 
  -1   3   9    6.20    3.30 
   0  -3  -9    5.20    2.50 
   0   3   9    9.60    6.10 
   0   3   9    4.50    2.40 
  -1  -3  -9   17.80    3.80 
  -1  -3  -9    9.90    3.20 
   1   3   9    8.50    3.20 
   1   3   9    3.10    3.00 
   1   3   9    7.70    2.90 
  -2  -3  -9  781.62   34.10 
   2   3   9  785.92   37.80 
   2   3   9  771.22   34.10 
   2   3   9  743.83   35.40 
  -3  -3  -9  797.82   35.50 
   3   3   9  827.32   38.80 
   3   3   9  790.42   36.90 
   3   3   9  827.42   37.30 
  -4  -3  -9   77.99    7.60 
   4   3   9   45.40    7.90 
   4   3   9   69.59    7.90 
   4   3   9   67.49    7.70 
  -5  -3  -9    4.30    3.30 
   5   3   9   13.00    3.80 
   5   3   9   13.40    4.20 
   5   3   9    5.60    3.70 
  -6  -3  -9   66.69    7.40 
   6   3   9   82.39   15.10 
   6   3   9   69.69    8.40 
  -7  -3  -9  301.67   19.10 
   7   3   9  316.67   19.40 
   7   3   9  319.57   20.40 
  -8  -3  -9  106.59   11.70 
   8   3   9  104.69   11.30 
   8   3   9   95.69   10.10 
  -9  -3  -9  119.39   12.70 
   9   3   9   96.49   10.90 
   9   3   9  119.89   12.70 
   3  -4  -9  229.18   18.60 
  -3   4   9  224.88   17.40 
   2  -4  -9  247.88   19.20 
  -2   4   9  224.38   16.90 
  -2   4   9  241.98   16.30 
   1  -4  -9   49.00    8.80 
  -1   4   9   42.60    6.90 
  -1   4   9   38.70    7.20 
   0  -4  -9   78.79    9.00 
   0   4   9   64.59    6.80 
  -1  -4  -9  946.21   44.10 
  -1  -4  -9  906.41   38.20 
   1   4   9  924.01   44.80 
   1   4   9  985.80   41.90 
  -2  -4  -9   62.99    6.30 
   2   4   9   57.99    7.90 
   2   4   9   51.09    5.80 
   2   4   9   51.19    6.50 
  -3  -4  -9  190.78   12.10 
   3   4   9  181.48   14.70 
   3   4   9  187.68   12.60 
   3   4   9  173.78   12.90 
  -4  -4  -9  178.98   11.70 
   4   4   9  156.58   11.80 
   4   4   9  168.38   13.90 
   4   4   9  162.98   12.40 
  -5  -4  -9  764.92   32.70 
   5   4   9  691.73   34.20 
   5   4   9  706.83   40.80 
   5   4   9  721.93   34.00 
  -6  -4  -9   25.30    4.90 
   6   4   9   25.00    6.30 
   6   4   9   19.50    5.10 
   6   4   9   29.50    6.00 
  -7  -4  -9   48.00    6.50 
   7   4   9   60.09    7.50 
   7   4   9   50.49    8.50 
   7   4   9   35.20    7.20 
  -8  -4  -9  335.07   20.70 
   8   4   9  300.67   20.90 
   8   4   9  312.07   20.30 
  -9  -4  -9   -2.50    3.40 
   9   4   9   -1.80    2.70 
   9   4   9   -1.90    3.70 
   2  -5  -9    2.80    5.40 
  -2   5   9    1.90    3.80 
   1  -5  -9  820.42   42.00 
  -1   5   9  782.62   36.00 
  -1   5   9  798.42   37.70 
   0  -5  -9   57.59   10.20 
   0   5   9   46.50    5.80 
  -1  -5  -9    6.60    3.50 
   1   5   9    3.20    2.70 
   1   5   9    5.90    3.90 
   1   5   9    8.10    3.10 
  -2  -5  -9   35.70    4.10 
  -2  -5  -9   39.70    7.80 
   2   5   9   34.10    5.80 
   2   5   9   33.20    5.30 
   2   5   9   38.70    7.90 
  -3  -5  -9   -0.90    2.00 
   3   5   9    2.20    2.90 
   3   5   9    7.90    2.80 
   3   5   9   -0.40    3.40 
  -4  -5  -9   11.20    3.30 
   4   5   9   15.30    4.10 
   4   5   9    6.10    3.80 
   4   5   9   12.90    4.40 
  -5  -5  -9    3.90    2.40 
   5   5   9    0.40    2.70 
   5   5   9   -2.40    2.30 
   5   5   9   -0.20    2.10 
  -6  -5  -9  126.79   10.10 
   6   5   9  124.99   10.90 
   6   5   9  133.89   12.50 
   6   5   9  142.19   11.90 
  -7  -5  -9   18.80    4.50 
   7   5   9   23.50    6.00 
   7   5   9   18.20    4.90 
   7   5   9   25.70    6.20 
  -8  -5  -9  138.39   12.10 
   8   5   9  161.28   13.30 
   8   5   9  117.79   13.50 
   8   5   9  137.99   12.50 
   9   5   9   55.29    9.60 
   9   5   9   46.40    8.00 
   1  -6  -9    0.20    3.90 
  -1   6   9    4.40    3.80 
  -1   6   9    1.80    2.90 
   0  -6  -9  227.78   18.80 
   0   6   9  223.28   14.00 
   0   6   9  212.38   14.90 
  -1  -6  -9  351.06   23.10 
   1   6   9  325.87   23.10 
   1   6   9  297.17   17.00 
   1   6   9  322.37   18.80 
  -2  -6  -9   12.50    5.10 
   2   6   9   23.00    4.20 
   2   6   9   16.50    5.80 
   2   6   9   19.30    4.40 
   3   6   9   17.80    5.90 
   3   6   9   13.30    3.80 
   3   6   9   13.60    3.90 
  -4  -6  -9  151.78    9.60 
   4   6   9  166.48   12.10 
   4   6   9  153.68   14.30 
   4   6   9  160.08   11.70 
  -5  -6  -9  175.38   11.20 
   5   6   9  186.18   15.70 
   5   6   9  168.78   12.80 
   5   6   9  155.68   12.40 
  -6  -6  -9    0.00    2.30 
   6   6   9    6.60    3.20 
   6   6   9   -0.20    3.00 
   6   6   9    3.60    3.50 
  -7  -6  -9   -1.30    2.60 
   7   6   9    3.50    2.70 
   7   6   9    3.10    3.70 
   7   6   9    4.20    3.80 
   8   6   9   11.20    5.00 
   8   6   9    9.80    4.90 
   9   6   9    8.80    4.70 
   9   6   9   22.30    6.80 
   0  -7  -9  268.07   22.00 
   0   7   9  291.27   17.70 
   0   7   9  273.57   17.00 
  -1  -7  -9   73.29   12.30 
   1   7   9   63.89    7.30 
   1   7   9   61.39   11.00 
   1   7   9   60.19    6.60 
  -2  -7  -9   23.50    6.20 
   2   7   9   44.70    9.50 
   2   7   9   41.10    6.20 
   2   7   9   33.70    5.60 
   3   7   9  104.39    9.00 
   3   7   9  107.39   13.00 
   3   7   9  116.39    9.60 
   4   7   9   17.40    5.70 
   4   7   9   23.20    4.80 
   4   7   9   12.40    4.20 
   5   7   9   -2.40    3.00 
   5   7   9   -1.70    2.10 
   5   7   9   -1.40    2.70 
  -6  -7  -9  102.29    9.10 
   6   7   9  116.99   10.10 
   6   7   9  118.09   12.70 
   7   7   9  148.39   14.90 
   7   7   9  125.89   11.80 
   8   7   9    2.20    3.60 
   8   7   9   -2.40    3.50 
   9   7   9   -3.80    3.80 
   9   7   9    3.40    4.30 
  -1  -8  -9   78.29   13.30 
   1   8   9   87.49   13.60 
   1   8   9   66.89    7.30 
   1   8   9   79.19    7.30 
  -2  -8  -9   52.39   13.10 
   2   8   9   49.40    6.70 
   2   8   9   82.49    9.90 
   2   8   9   32.50   14.30 
  -3  -8  -9   75.09   10.50 
   3   8   9   60.19   11.50 
   3   8   9   65.29    7.40 
   3   8   9   83.79    8.20 
   4   8   9    3.20    2.70 
   4   8   9    6.50    4.60 
   4   8   9    2.40    3.30 
   5   8   9  293.27   18.20 
   5   8   9  292.97   18.30 
   5   8   9  309.77   23.60 
   6   8   9   12.80    6.80 
   6   8   9   26.20    6.00 
   7   8   9    4.10    4.50 
   7   8   9    1.90    4.70 
   8   8   9    4.70    4.20 
   8   8   9    5.50    4.40 
  -3  -9  -9   -1.00    4.20 
   3   9   9    1.50    2.60 
   3   9   9   -8.00    3.50 
   4   9   9   53.69   12.10 
   4   9   9   63.69    7.50 
   4   9   9   60.19    9.90 
   5   9   9   54.69    7.30 
   5   9   9   59.99   11.20 
   6   9   9   -6.30    2.50 
   6   9   9   -4.50    3.80 
   1   6 -10   35.40    8.10 
   0   6 -10   -2.30    5.20 
  -1   6 -10   -3.10    3.90 
  -2   6 -10   22.50   11.60 
   2   5 -10   -2.70    4.30 
   1   5 -10   82.59   11.20 
   0   5 -10  131.69   14.20 
  -1   5 -10   16.30    5.60 
  -2   5 -10    3.90    4.10 
  -3   5 -10   68.89   10.80 
  -4   5 -10   55.09    9.80 
   3   4 -10  141.19   15.60 
   3   4 -10  123.09    9.70 
  -3  -4  10  131.39   17.50 
   2   4 -10   47.10    5.10 
   2   4 -10   53.39    9.60 
  -2  -4  10   59.99   10.30 
   1   4 -10  251.67   18.80 
   1   4 -10  242.88   10.90 
  -1  -4  10  253.87   19.50 
   0   4 -10  168.38   15.50 
   0  -4  10  217.38   17.10 
  -1   4 -10   56.19   15.00 
   1  -4  10   53.39    8.90 
  -2   4 -10   47.50    8.90 
  -2   4 -10   60.89   10.10 
   2  -4  10   63.89    9.60 
  -3   4 -10   39.70    7.70 
  -4   4 -10   56.09    9.20 
  -5   4 -10   81.99   10.40 
   3   3 -10   51.59    7.40 
   3   3 -10   40.70    8.60 
  -3  -3  10   62.39   10.30 
   2   3 -10  124.19   13.00 
   2   3 -10  119.69    9.20 
  -2  -3  10  123.19   13.20 
   1   3 -10   17.70    3.30 
   1   3 -10   13.10    5.00 
  -1  -3  10   17.70    5.60 
   0   3 -10  180.88   15.80 
   0   3 -10  204.58   10.30 
   0   3 -10  194.98   10.00 
   0  -3  10  219.98   17.50 
  -1   3 -10   57.59    4.50 
  -1   3 -10   58.99    8.00 
  -1   3 -10   58.09    4.20 
   1  -3  10   54.19    8.90 
  -2   3 -10    0.80    1.20 
  -2   3 -10    8.10    3.90 
  -2   3 -10    0.50    1.50 
   2  -3  10    4.00    3.60 
  -3   3 -10  297.97   13.60 
  -3   3 -10  300.67   13.80 
  -3   3 -10  303.17   20.40 
  -3   3 -10  305.67   20.00 
   3  -3  10  305.67   20.90 
   3  -3  10  332.67   14.80 
  -4   3 -10   50.09    8.60 
  -4   3 -10   46.90    8.20 
  -4   3 -10   60.99    5.50 
   4  -3  10   75.79    9.10 
   4  -3  10   59.59    5.80 
  -5   3 -10    2.60    2.90 
   5  -3  10    6.40    3.10 
  -6   3 -10   14.90    5.20 
   6  -3  10   16.10    4.10 
   3   2 -10   32.20   10.20 
   3   2 -10   13.70    6.50 
  -3  -2  10   32.30    8.00 
   2   2 -10  121.39   12.10 
   2   2 -10   92.49    8.50 
  -2  -2  10   83.69   10.20 
   1   2 -10   47.70    8.70 
   1   2 -10   62.19    6.30 
  -1  -2  10   42.90    8.50 
   0   2 -10    1.10    2.90 
   0   2 -10    6.80    2.40 
   0   2 -10   -3.20    2.00 
   0  -2  10    3.20    3.80 
  -1   2 -10  293.77   14.80 
  -1   2 -10  253.97   18.60 
  -1   2 -10  293.87   14.20 
   1  -2  10  309.17   20.30 
  -2   2 -10  189.38   14.80 
  -2   2 -10  173.28   10.10 
  -2   2 -10  174.38   10.40 
   2  -2  10  196.38   15.50 
   2  -2  10  184.98   11.20 
  -3   2 -10    1.40    2.30 
  -3   2 -10   11.30    4.10 
   3  -2  10    3.20    3.10 
   3  -2  10    7.90    2.60 
  -4   2 -10   28.70    4.60 
  -4   2 -10   28.90    6.50 
   4  -2  10   21.70    5.50 
   4  -2  10   30.60    4.80 
  -5   2 -10  178.98   14.60 
   5  -2  10  190.58   12.60 
   5  -2  10  219.38   16.70 
  -6   2 -10   24.50    5.90 
   6  -2  10   20.30    4.60 
  -7   2 -10    2.30    3.90 
   4   1 -10   19.30    6.20 
  -4  -1  10   23.20    7.10 
   3   1 -10  238.08   16.10 
  -3  -1  10  201.08   17.90 
   2   1 -10    7.10    3.40 
   2   1 -10    5.40    4.20 
  -2  -1  10    6.80    4.10 
   1   1 -10   42.80    7.40 
   1   1 -10   36.60    6.20 
  -1  -1  10   31.30    7.10 
   0   1 -10  786.22   38.10 
   0   1 -10  744.33   33.10 
   0  -1  10  755.72   38.20 
  -1   1 -10  184.68   11.90 
  -1   1 -10  198.58   15.40 
  -1   1 -10  186.08   11.20 
  -2   1 -10   -1.00    2.50 
  -2   1 -10    0.90    1.90 
  -2   1 -10    4.00    2.20 
   2  -1  10    2.70    3.20 
  -3   1 -10  718.83   35.60 
  -3   1 -10  756.82   31.60 
   3  -1  10  778.02   37.50 
   3  -1  10  694.63   32.70 
  -4   1 -10   75.59    8.60 
   4  -1  10   87.89    8.20 
   4  -1  10   82.09    9.90 
  -5   1 -10  172.58   14.00 
   5  -1  10  183.68   12.90 
   5  -1  10  187.48   15.70 
  -6   1 -10   31.50    6.20 
   6  -1  10   36.70    8.20 
   6  -1  10   24.70    5.10 
  -7   1 -10   70.19    9.60 
   7  -1  10   84.59    8.70 
  -8   1 -10   38.00    8.70 
   8  -1  10   35.50    6.40 
   3   0 -10   14.80    4.80 
  -3   0  10    9.40    4.80 
   2   0 -10  429.96   24.90 
   2   0 -10  381.16   22.20 
  -2   0  10  374.46   23.80 
  -2   0  10  377.86   24.70 
   1   0 -10  196.28   13.30 
   1   0 -10  182.48   14.30 
  -1   0  10  158.68   14.90 
  -1   0  10  171.28   13.90 
   0   0 -10    9.30    3.50 
   0   0 -10    2.30    2.90 
   0   0  10    5.30    3.60 
   0   0  10   10.50    4.00 
  -1   0 -10 1206.78   56.09 
  -1   0 -10 1458.35   54.79 
   1   0  10 1327.77   55.99 
   1   0  10 1397.16   55.49 
   1   0  10 1261.87   57.69 
  -2   0 -10  652.43   28.80 
  -2   0 -10  546.55   30.00 
   2   0  10  601.14   31.90 
   2   0  10  626.54   29.80 
   2   0  10  601.64   30.30 
  -3   0 -10   49.90    7.90 
   3   0  10   41.60    7.90 
   3   0  10   44.00    6.10 
  -4   0 -10  186.08   15.50 
   4   0  10  192.88   13.50 
   4   0  10  199.58   15.50 
  -5   0 -10   38.70    7.00 
   5   0  10   27.10    5.60 
   5   0  10   32.80   10.20 
  -6   0 -10   25.90    6.00 
   6   0  10   16.90    5.40 
   6   0  10   13.90    4.20 
  -7   0 -10   34.20    7.30 
   7   0  10   33.30    5.80 
   7   0  10   39.70    8.20 
  -8   0 -10   16.60    6.20 
   8   0  10   26.40    6.40 
   3  -1 -10  201.48   15.90 
  -3   1  10  179.38   17.30 
   2  -1 -10  158.68   13.30 
  -2   1  10  138.39   13.50 
  -2   1  10  122.99   12.70 
   1  -1 -10    9.50    3.40 
   1  -1 -10    0.60    2.80 
  -1   1  10    8.80    4.80 
  -1   1  10    4.50    3.80 
   0  -1 -10  131.49   11.50 
   0  -1 -10  138.69   11.80 
   0   1  10  134.19   12.20 
   0   1  10  128.89   11.20 
  -1  -1 -10   23.40    5.20 
  -1  -1 -10   32.50    5.80 
   1   1  10   41.10    6.70 
   1   1  10   23.00    5.80 
   1   1  10   30.90    6.40 
  -2  -1 -10  960.70   41.20 
  -2  -1 -10  859.61   41.40 
   2   1  10  922.21   42.10 
   2   1  10  941.41   43.20 
   2   1  10  979.10   42.00 
  -3  -1 -10  391.76   23.10 
   3   1  10  439.46   25.10 
   3   1  10  437.56   23.80 
   3   1  10  439.76   23.80 
  -4  -1 -10   85.29    9.30 
   4   1  10  115.19   11.20 
   4   1  10  122.49   10.30 
   4   1  10  130.59   11.40 
  -5  -1 -10  650.43   31.60 
   5   1  10  637.34   33.40 
   5   1  10  622.94   31.20 
  -6  -1 -10   16.70    4.80 
   6   1  10   13.40    5.80 
   6   1  10   12.30    4.00 
  -7  -1 -10   77.19    8.60 
   7   1  10   65.39    8.70 
   7   1  10   62.19    8.20 
  -8  -1 -10   95.59   11.20 
   8   1  10  104.79   10.30 
   8   1  10   83.79   11.40 
   3  -2 -10   -1.50    3.20 
  -3   2  10    7.60    4.50 
   2  -2 -10    4.40    4.40 
  -2   2  10    7.40    4.90 
   1  -2 -10  798.62   37.80 
   1  -2 -10  726.83   35.60 
  -1   2  10  758.22   36.30 
  -1   2  10  757.42   38.10 
   0  -2 -10   24.50    5.90 
   0  -2 -10   29.10    6.40 
   0   2  10   31.80    6.80 
   0   2  10   30.80    5.80 
  -1  -2 -10  106.19    9.90 
  -1  -2 -10  122.09   11.00 
   1   2  10  110.09   10.90 
   1   2  10  132.19   10.40 
   1   2  10  107.39   11.10 
  -2  -2 -10   -3.30    2.10 
  -2  -2 -10    1.80    2.30 
   2   2  10    4.20    3.00 
   2   2  10   -0.10    1.80 
   2   2  10   -3.20    2.50 
  -3  -2 -10   46.30    6.20 
   3   2  10   32.30    6.80 
   3   2  10   36.00    6.60 
   3   2  10   33.90    6.50 
  -4  -2 -10   25.40    5.10 
   4   2  10   32.60    6.60 
   4   2  10   29.40    6.50 
   4   2  10   33.50    6.40 
  -5  -2 -10   58.09    7.30 
   5   2  10   63.89    8.70 
   5   2  10   63.29    8.00 
   5   2  10   68.19    8.50 
  -6  -2 -10  403.86   23.30 
   6   2  10  395.26   24.40 
   6   2  10  430.96   25.00 
  -7  -2 -10  104.79   18.40 
   7   2  10  113.59   12.10 
   7   2  10  115.99   11.00 
  -8  -2 -10   14.70    5.50 
   8   2  10   14.10    5.50 
   8   2  10   23.90    7.00 
  -9  -2 -10   93.29   11.60 
   9   2  10   72.89    9.90 
   9   2  10   63.49   10.20 
   3  -3 -10  146.29   14.40 
  -3   3  10  142.09   15.10 
   2  -3 -10  453.35   27.80 
  -2   3  10  458.75   27.40 
   1  -3 -10   16.30    5.70 
  -1   3  10   24.00    6.10 
  -1   3  10   15.30    4.20 
   0  -3 -10  194.58   13.50 
   0  -3 -10  208.78   15.80 
   0   3  10  187.28   15.20 
   0   3  10  210.78   14.30 
  -1  -3 -10  309.97   19.90 
  -1  -3 -10  305.17   17.80 
   1   3  10  285.77   17.20 
   1   3  10  284.17   20.20 
   1   3  10  275.17   18.70 
  -2  -3 -10  571.94   28.10 
  -2  -3 -10  624.14   30.90 
   2   3  10  510.95   30.60 
   2   3  10  574.54   28.10 
   2   3  10  573.24   29.60 
  -3  -3 -10   40.80    6.50 
   3   3  10   32.80    6.10 
   3   3  10   26.60    6.40 
   3   3  10   31.20    6.50 
  -4  -3 -10  328.27   18.30 
   4   3  10  312.37   19.10 
   4   3  10  288.47   19.10 
   4   3  10  260.07   19.10 
  -5  -3 -10   -0.60    2.70 
   5   3  10   -1.70    4.60 
   5   3  10    6.50    3.60 
   5   3  10    4.80    3.30 
  -6  -3 -10  157.68   13.00 
   6   3  10  195.78   15.20 
   6   3  10  198.98   15.30 
   6   3  10  193.78   15.80 
  -7  -3 -10  103.99   10.90 
   7   3  10  124.49   12.20 
   7   3  10  121.99   11.90 
  -8  -3 -10  856.81   40.60 
   8   3  10  791.22   40.60 
   8   3  10  758.62   38.70 
  -9  -3 -10   13.20    6.50 
   9   3  10    5.10    6.80 
   9   3  10   23.50    7.10 
   2  -4 -10   37.90    8.20 
  -2   4  10   26.20    7.10 
   1  -4 -10  104.69   11.80 
  -1   4  10  114.89   11.80 
   0  -4 -10  286.17   20.10 
   0  -4 -10  240.58   14.50 
   0   4  10  267.57   17.90 
  -1  -4 -10   -1.30    2.40 
  -1  -4 -10    1.30    2.70 
   1   4  10    3.90    2.60 
   1   4  10    4.60    2.70 
   1   4  10    1.70    2.90 
  -2  -4 -10   76.89    7.90 
  -2  -4 -10   82.89    9.50 
   2   4  10   70.79    9.00 
   2   4  10   81.89   10.10 
   2   4  10   74.89    8.20 
   3   4  10  460.35   27.80 
   3   4  10  477.65   25.90 
   3   4  10  483.65   24.80 
  -4  -4 -10  242.68   15.30 
   4   4  10  239.28   18.10 
   4   4  10  221.68   15.80 
  -5  -4 -10  148.69   11.50 
   5   4  10  142.49   12.40 
   5   4  10  153.38   12.60 
   5   4  10  135.39   13.10 
  -6  -4 -10   40.00    5.50 
   6   4  10   21.60    6.60 
   6   4  10   31.40    6.80 
   6   4  10   25.70    6.30 
  -7  -4 -10   17.20    4.60 
   7   4  10   27.40    6.90 
   7   4  10   17.00    6.60 
  -8  -4 -10   69.29    9.20 
   8   4  10   62.49   10.10 
   8   4  10   47.40    9.20 
   9   4  10    0.70    3.40 
   9   4  10    8.40    5.70 
   1  -5 -10   42.80    8.50 
  -1   5  10   34.00    6.80 
   0  -5 -10   70.89    9.70 
   0   5  10   43.60    7.10 
   0   5  10   56.09    8.90 
  -1  -5 -10  318.17   21.70 
   1   5  10  287.27   21.40 
   1   5  10  279.37   18.50 
   1   5  10  276.67   16.90 
  -2  -5 -10   10.80    4.80 
  -2  -5 -10    2.30    2.50 
   2   5  10    0.60    2.70 
   2   5  10    2.90    4.10 
   2   5  10    5.20    3.00 
  -3  -5 -10  164.98   11.20 
   3   5  10  145.89   14.30 
   3   5  10  186.58   13.40 
  -4  -5 -10   26.20    5.00 
   4   5  10   24.70    5.10 
   4   5  10   19.60    5.00 
   4   5  10   27.90    5.60 
   5   5  10  250.67   18.50 
   5   5  10  229.88   16.00 
   5   5  10  192.48   17.60 
  -6  -5 -10    1.50    2.60 
   6   5  10   -2.70    2.80 
   6   5  10   -1.50    3.30 
   6   5  10   -3.70    1.70 
  -7  -5 -10   37.60    6.20 
   7   5  10   26.80    6.90 
   7   5  10   21.70    6.50 
   7   5  10   30.30    6.90 
   8   5  10   19.60    5.60 
   8   5  10   11.30    5.00 
   9   5  10   16.20    5.60 
   9   5  10   11.40    4.90 
   0  -6 -10   97.89   12.80 
   0   6  10  115.19   11.10 
  -1  -6 -10    2.10    4.80 
   1   6  10   14.20    4.00 
   1   6  10    6.40    4.80 
   1   6  10   21.80    5.00 
  -2  -6 -10  390.66   25.50 
   2   6  10  362.66   20.00 
   2   6  10  365.06   25.60 
   2   6  10  344.37   21.00 
   3   6  10   21.30    6.70 
   3   6  10   20.20    4.50 
   3   6  10   29.60    5.40 
  -4  -6 -10   63.19    6.90 
   4   6  10   72.49    9.70 
   4   6  10   58.19    7.50 
   4   6  10   49.99    7.00 
  -5  -6 -10   16.50    4.00 
   5   6  10   22.00    5.60 
   5   6  10    8.90    3.40 
   5   6  10   11.40    4.20 
   6   6  10   43.20    8.60 
   6   6  10   45.30    7.70 
   6   6  10   59.89    9.00 
   7   6  10   24.60    7.00 
   7   6  10   19.80    5.40 
   8   6  10   47.50   10.00 
   8   6  10   35.70    7.60 
   9   6  10   -2.50    4.10 
   9   6  10    4.30    4.80 
  -1  -7 -10  113.49   13.20 
   1   7  10  113.69   14.20 
   1   7  10   89.29    9.60 
   2   7  10  246.58   15.80 
   2   7  10  238.98   23.00 
   2   7  10  307.57   32.20 
  -3  -7 -10  159.28   15.80 
   3   7  10  163.68   12.10 
   3   7  10  143.79   15.80 
   3   7  10  167.38   13.10 
   4   7  10   57.19    7.10 
   4   7  10   44.00    9.90 
   4   7  10   30.10    6.10 
   5   7  10    4.20    3.10 
   5   7  10    0.90    4.00 
   5   7  10    7.60    5.20 
   6   7  10   -5.00    4.00 
   6   7  10    2.30    3.70 
   7   7  10    0.90    3.10 
   7   7  10   11.30    5.70 
   8   7  10    9.20    4.50 
   8   7  10    2.10    4.90 
  -2  -8 -10    5.40    5.20 
   2   8  10   13.30    4.20 
   2   8  10   16.80    7.60 
  -3  -8 -10   18.40    6.00 
   3   8  10   17.20    4.90 
   3   8  10   20.20    7.90 
   4   8  10   57.09    7.50 
   4   8  10   55.59   11.50 
   5   8  10   83.89    9.70 
   5   8  10   73.69   13.20 
   6   8  10   81.39    9.90 
   6   8  10   77.59   13.50 
   7   8  10    2.20    3.60 
   7   8  10    1.90    4.20 
   0   5 -11  174.68   16.30 
  -1   5 -11  193.18   17.40 
  -2   5 -11  145.39   14.40 
   1   4 -11   -0.60    5.20 
   0   4 -11   92.69   13.50 
  -1   4 -11   13.70    5.60 
  -2   4 -11    4.10    3.60 
  -3   4 -11   -1.00    3.30 
  -4   4 -11   13.30    5.20 
   2   3 -11    6.70    5.20 
   2   3 -11    8.50    3.60 
  -2  -3  11    7.70    5.10 
   1   3 -11  203.78   18.70 
   1   3 -11  234.98   13.00 
  -1  -3  11  251.17   20.50 
   0   3 -11    7.50    5.60 
   0   3 -11   18.00    3.30 
   0  -3  11    6.90    5.20 
  -1   3 -11   39.60    3.80 
  -1   3 -11   29.90    6.90 
   1  -3  11   25.90    6.90 
  -2   3 -11   39.20    3.70 
  -2   3 -11   38.00    8.00 
   2  -3  11   55.79    9.90 
  -3   3 -11   86.49   10.70 
  -3   3 -11   74.49    5.30 
  -4   3 -11    9.40    5.30 
   4  -3  11   16.00    4.10 
  -5   3 -11    2.60    3.90 
   2   2 -11  110.59   14.10 
   2   2 -11  140.59   11.00 
  -2  -2  11  154.58   15.30 
   1   2 -11   15.10    5.50 
   1   2 -11    4.50    3.10 
  -1  -2  11   -3.20    4.20 
   0   2 -11  108.49    8.30 
   0   2 -11  107.79   12.10 
   0  -2  11   90.49   11.70 
  -1   2 -11   89.99    7.40 
  -1   2 -11   89.79   10.60 
  -1   2 -11  101.79    7.60 
   1  -2  11   96.39   11.20 
  -2   2 -11  497.25   28.90 
  -2   2 -11  505.55   22.80 
  -3   2 -11    4.20    3.90 
  -3   2 -11    0.40    1.90 
  -3   2 -11    2.90    3.20 
   3  -2  11    0.70    3.30 
  -4   2 -11   -2.20    3.20 
  -4   2 -11    4.70    3.20 
   4  -2  11   -3.10    4.20 
   4  -2  11    4.20    2.90 
  -5   2 -11    5.50    3.80 
   5  -2  11    6.60    3.10 
   5  -2  11   -3.20    3.90 
  -6   2 -11   19.40    5.10 
   6  -2  11   25.40    5.40 
   2   1 -11    1.30    2.80 
  -2  -1  11    0.50    3.90 
   1   1 -11   54.59   10.00 
   1   1 -11   57.99    7.20 
  -1  -1  11   50.09    9.00 
   0   1 -11  139.29   10.60 
   0   1 -11  136.59   13.20 
   0  -1  11  124.59   13.30 
  -1   1 -11    6.00    6.40 
  -1   1 -11    1.90    2.40 
   1  -1  11   -0.70    3.20 
  -2   1 -11    9.30    3.00 
  -2   1 -11    0.60    4.00 
   2  -1  11    9.00    4.10 
   2  -1  11    9.40    3.70 
  -3   1 -11  155.28   11.00 
  -3   1 -11  131.19   12.90 
   3  -1  11  156.78   11.60 
   3  -1  11  150.88   14.00 
  -4   1 -11  109.49   11.70 
   4  -1  11  103.29    9.60 
   4  -1  11  103.59   12.70 
  -5   1 -11   13.90    4.70 
   5  -1  11   22.10    4.60 
   5  -1  11   15.30    5.70 
  -6   1 -11   11.20    4.70 
   6  -1  11   15.30    4.70 
   6  -1  11   15.20    6.50 
  -7   1 -11   -1.70    4.00 
   7  -1  11    1.60    3.30 
   2   0 -11   41.50    7.20 
  -2   0  11   38.40    8.40 
   1   0 -11  213.58   15.20 
   1   0 -11  199.38   16.40 
  -1   0  11  226.18   18.60 
   0   0 -11  154.18   13.50 
   0   0 -11  145.39   11.70 
   0   0  11  123.29   13.40 
  -1   0 -11   58.69    9.20 
  -1   0 -11   60.29    7.20 
  -2   0 -11  417.56   22.00 
  -2   0 -11  409.06   24.50 
   2   0  11  395.36   22.70 
   2   0  11  393.36   25.10 
  -3   0 -11  240.48   17.10 
   3   0  11  244.58   18.00 
   3   0  11  212.28   15.50 
  -4   0 -11  168.08   13.60 
   4   0  11  155.98   14.60 
   4   0  11  130.49   11.90 
  -5   0 -11   66.49    9.80 
   5   0  11   58.29   10.00 
   5   0  11   69.29    8.00 
  -6   0 -11  166.98   14.20 
   6   0  11  167.28   13.70 
   6   0  11  177.68   16.50 
  -7   0 -11   -4.30    3.70 
   7   0  11    0.50    3.20 
   7   0  11    3.20    4.70 
  -8   0 -11   13.60    5.80 
   2  -1 -11   78.39    9.80 
  -2   1  11   72.79    9.70 
   1  -1 -11  197.48   14.90 
  -1   1  11  208.08   17.60 
   0  -1 -11  100.79   10.70 
   0  -1 -11   77.99    8.90 
   0   1  11   66.99    9.30 
   0   1  11   79.39    9.80 
  -1  -1 -11  265.27   18.50 
  -1  -1 -11  290.97   18.60 
   1   1  11  300.17   18.90 
   1   1  11  289.37   20.50 
   1   1  11  296.67   19.40 
  -2  -1 -11  176.08   14.70 
  -2  -1 -11  210.78   14.90 
   2   1  11  197.88   15.70 
   2   1  11  234.38   15.80 
   2   1  11  237.38   17.40 
  -3  -1 -11   14.00    4.50 
   3   1  11   10.20    4.30 
   3   1  11    7.30    3.50 
   3   1  11    2.90    4.70 
  -4  -1 -11    9.90    4.10 
   4   1  11   14.00    4.80 
   4   1  11    1.40    3.60 
  -5  -1 -11  128.39   12.10 
   5   1  11  150.18   14.50 
   5   1  11  143.19   12.00 
  -6  -1 -11   29.20    6.40 
   6   1  11   26.30    6.20 
   6   1  11   25.00    6.00 
  -7  -1 -11   62.99    8.60 
   7   1  11   53.09    8.60 
   7   1  11   53.79    9.60 
  -8  -1 -11  178.78   15.60 
   8   1  11  143.79   15.00 
   8   1  11  149.09   13.60 
   2  -2 -11   -7.40    3.60 
  -2   2  11   -5.60    3.40 
   1  -2 -11  235.28   17.90 
  -1   2  11  215.88   17.80 
   0  -2 -11    8.70    3.90 
   0  -2 -11    6.20    3.80 
   0   2  11    5.60    4.40 
  -1  -2 -11  703.23   34.60 
  -1  -2 -11  728.43   35.60 
   1   2  11  699.53   36.10 
   1   2  11  701.43   36.50 
   1   2  11  701.53   34.20 
  -2  -2 -11    9.70    4.10 
   2   2  11   15.50    5.20 
   2   2  11   16.00    4.80 
  -3  -2 -11  524.95   27.00 
   3   2  11  490.05   28.00 
   3   2  11  471.65   26.50 
   3   2  11  475.75   27.70 
  -4  -2 -11    2.30    3.50 
   4   2  11    1.80    3.50 
   4   2  11    3.50    3.70 
   4   2  11    7.90    4.10 
  -5  -2 -11   16.30    5.10 
   5   2  11   -1.00    3.90 
   5   2  11    6.60    3.80 
  -6  -2 -11    2.60    3.20 
   6   2  11    1.40    3.50 
   6   2  11    5.90    3.70 
  -7  -2 -11   18.00    5.30 
   7   2  11   15.30    5.80 
   7   2  11   20.90    5.90 
  -8  -2 -11    9.90    4.20 
   8   2  11    5.30    4.60 
   8   2  11    4.40    4.40 
   1  -3 -11  275.67   20.30 
  -1   3  11  264.67   20.30 
   0   3  11   -6.80    2.90 
  -1  -3 -11   -2.30    3.00 
   1   3  11    9.80    3.80 
   1   3  11    5.00    3.20 
   1   3  11    7.50    4.00 
  -2  -3 -11   42.30    8.50 
  -2  -3 -11   52.99    8.00 
   2   3  11   48.80    8.40 
   2   3  11   37.80    7.40 
   2   3  11   50.49    8.90 
  -3  -3 -11   72.99    8.20 
   3   3  11   87.29   10.60 
   3   3  11   91.29   10.10 
   3   3  11   86.29    9.90 
  -4  -3 -11  467.55   25.70 
   4   3  11  485.55   27.30 
   4   3  11  499.65   28.90 
  -5  -3 -11  319.17   19.90 
   5   3  11  328.27   22.10 
   5   3  11  311.17   22.40 
   5   3  11  344.77   22.00 
  -6  -3 -11    1.70    3.00 
   6   3  11   -6.80    2.90 
   6   3  11   -0.90    3.30 
  -7  -3 -11  251.37   17.50 
   7   3  11  231.08   18.20 
   7   3  11  243.78   18.30 
  -8  -3 -11  137.59   15.90 
   8   3  11  141.89   17.70 
   8   3  11  143.69   13.60 
   1  -4 -11   52.29   10.20 
  -1   4  11   50.89    9.20 
   0  -4 -11  205.68   18.00 
   0   4  11  223.78   17.20 
  -1  -4 -11   11.70    5.20 
   1   4  11   11.60    5.60 
   1   4  11   10.10    3.80 
   1   4  11    0.80    3.00 
  -2  -4 -11    8.10    4.60 
  -2  -4 -11   12.50    4.30 
   2   4  11    7.20    4.10 
   2   4  11    4.30    4.00 
   2   4  11    7.90    3.60 
  -3  -4 -11    2.60    3.40 
   3   4  11    8.60    4.70 
   3   4  11    3.80    3.40 
   3   4  11    9.10    3.90 
  -4  -4 -11   47.00    7.40 
   4   4  11   28.40    6.40 
   4   4  11   44.60    9.00 
   4   4  11   36.00    7.40 
  -5  -4 -11   30.60    5.90 
   5   4  11   48.20    8.30 
   5   4  11   30.00    7.50 
   5   4  11   34.80    8.00 
  -6  -4 -11   36.40    6.50 
   6   4  11   36.40    7.60 
   6   4  11   45.60    8.00 
   6   4  11   18.20   10.30 
   7   4  11   11.70    6.00 
   7   4  11   18.00    5.90 
   8   4  11    9.60    5.10 
   8   4  11    9.90    5.40 
   0  -5 -11  115.59   13.40 
   0   5  11  123.09   12.20 
  -1  -5 -11  203.78   18.30 
   1   5  11  199.98   15.70 
   1   5  11  240.18   20.10 
  -2  -5 -11  180.28   16.80 
   2   5  11  205.38   17.70 
   2   5  11  165.78   14.30 
  -3  -5 -11   -3.20    2.30 
   3   5  11   -6.80    2.50 
   3   5  11    7.10    3.60 
   3   5  11    4.90    3.30 
   4   5  11   32.20    7.10 
   4   5  11   13.60    5.40 
   4   5  11   15.50    4.80 
   5   5  11   19.10    6.20 
   5   5  11   15.00    5.60 
   5   5  11   14.00    5.30 
   6   5  11   28.20    7.00 
   6   5  11   24.30    6.50 
   7   5  11    8.40    5.20 
   7   5  11   -2.00    3.50 
   8   5  11    4.80    5.10 
   8   5  11    7.30    5.00 
  -1  -6 -11   35.60    8.90 
   1   6  11   18.50    6.10 
   1   6  11   26.10    5.70 
   2   6  11   32.30   10.80 
  -3  -6 -11  452.45   28.20 
   3   6  11  402.86   24.30 
   3   6  11  420.36   28.50 
   4   6  11   55.79    9.40 
   4   6  11   74.69   10.30 
   5   6  11   15.40    5.50 
   5   6  11    1.00    3.20 
   6   6  11  103.79   11.70 
   6   6  11   92.09   12.00 
   7   6  11   -2.30    3.90 
   7   6  11    1.00    4.10 
   8   6  11   -5.50    4.40 
   8   6  11    7.30    5.60 
  -2  -7 -11    8.60    5.00 
   2   7  11   16.20    4.80 
   2   7  11    7.40    6.00 
  -3  -7 -11   27.90    7.30 
   3   7  11   20.80    7.40 
   3   7  11   27.20    6.20 
   4   7  11  106.09   14.00 
   4   7  11   94.29   11.10 
   5   7  11   99.09   14.00 
   5   7  11  104.69   19.40 
   6   7  11   66.39   12.10 
   6   7  11   41.50   13.20 
   7   7  11    0.90    4.50 
   7   7  11    2.10    3.70 
   0   3 -12    7.40    5.10 
  -1   3 -12   30.60    7.20 
  -2   3 -12  190.18   17.00 
  -3   3 -12   52.19   10.10 
  -4   3 -12   16.50    5.80 
   1   2 -12    8.00    4.10 
  -1  -2  12    5.40    6.00 
   0   2 -12   68.89   11.60 
   0   2 -12   64.99    7.10 
   0  -2  12   50.79    9.80 
  -1   2 -12   93.29   11.40 
  -1   2 -12   90.49    7.80 
   1  -2  12   90.09   12.20 
  -2   2 -12   29.50    7.50 
  -2   2 -12   24.90    4.40 
   2  -2  12   37.60    8.20 
  -3   2 -12   53.29    6.20 
  -3   2 -12   48.20   10.00 
   3  -2  12   42.20    8.30 
   3  -2  12   67.79    7.10 
  -4   2 -12  204.88   13.10 
  -4   2 -12  199.48   24.50 
   4  -2  12  250.57   14.90 
   4  -2  12  256.27   29.50 
  -5   2 -12   45.00    9.70 
   5  -2  12   60.69    7.90 
   1   1 -12    3.50    3.10 
  -1  -1  12   -0.40    4.20 
   0   1 -12   81.69   11.40 
   0   1 -12  122.79   10.20 
   0  -1  12  117.59   12.80 
  -1   1 -12    0.50    3.70 
  -1   1 -12    3.00    2.80 
   1  -1  12   -1.20    4.30 
  -2   1 -12   13.90    3.80 
  -2   1 -12   18.00    5.80 
  -3   1 -12    1.90    5.10 
  -3   1 -12    8.40    3.40 
   3  -1  12   13.30    5.50 
   3  -1  12    6.70    3.40 
  -4   1 -12   78.39   10.80 
   4  -1  12   79.89   10.70 
   4  -1  12   79.49    8.80 
  -5   1 -12   27.40    7.40 
   5  -1  12   17.10    7.40 
   5  -1  12   20.30    5.20 
  -6   1 -12   37.10    9.00 
   6  -1  12   68.29    8.90 
   1   0 -12   22.10    6.30 
  -1   0  12   17.70    7.10 
   0   0 -12  204.28   14.80 
   0   0  12  171.58   16.90 
  -1   0 -12  293.67   18.10 
  -1   0 -12  284.67   20.90 
   1   0  12  269.17   20.70 
  -2   0 -12    7.30    3.10 
  -2   0 -12    2.30    4.00 
   2   0  12    3.20    3.60 
   2   0  12   -0.10    2.90 
  -3   0 -12    0.40    2.60 
   3   0  12    3.20    3.70 
   3   0  12    8.30    4.70 
  -4   0 -12    6.40    3.60 
   4   0  12   -3.70    3.00 
   4   0  12    0.00    3.00 
  -5   0 -12   17.10    5.10 
   5   0  12   13.40    5.70 
   5   0  12    9.10    4.80 
  -6   0 -12    9.70    5.40 
   6   0  12   -1.10    3.10 
   6   0  12    2.20    4.90 
  -7   0 -12   28.00    7.30 
   7   0  12   26.80    6.30 
   1  -1 -12    2.40    3.90 
  -1   1  12    2.20    4.80 
   0  -1 -12   76.29    9.10 
   0   1  12   85.49   10.90 
  -1  -1 -12   25.00    9.70 
  -1  -1 -12   16.10    4.90 
   1   1  12   21.00    6.30 
  -2  -1 -12   98.59   10.90 
  -2  -1 -12   75.99   12.50 
   2   1  12   94.59   10.50 
   2   1  12   68.89   17.10 
  -3  -1 -12   73.49    9.30 
  -3  -1 -12   80.49   10.40 
   3   1  12   86.99   10.80 
   3   1  12   96.49   15.30 
  -4  -1 -12   69.99    9.40 
   4   1  12   75.99   10.40 
  -5  -1 -12   72.39   17.00 
   5   1  12   71.69    9.50 
   5   1  12   45.40    9.00 
  -6  -1 -12  131.99   13.10 
   6   1  12  135.79   12.70 
   6   1  12  146.79   14.60 
  -7  -1 -12    3.60    4.80 
   7   1  12   -0.90    5.20 
   7   1  12    2.10    4.30 
   1  -2 -12   16.90    6.50 
  -1   2  12   21.40    6.70 
   0  -2 -12   80.69    9.90 
   0   2  12   84.29   10.80 
  -1  -2 -12   41.80    7.90 
  -2  -2 -12  698.13   34.80 
  -2  -2 -12  549.15   34.90 
   2   2  12  695.13   36.40 
   2   2  12  653.43   34.90 
   2   2  12  703.73   35.90 
  -3  -2 -12   54.89    9.00 
  -3  -2 -12   51.99    8.80 
   3   2  12   92.79   10.40 
   3   2  12   61.09   10.20 
   3   2  12   68.09   10.90 
  -4  -2 -12  221.28   16.90 
   4   2  12  280.77   31.00 
   4   2  12  212.28   17.10 
  -5  -2 -12   99.19   10.80 
   5   2  12   83.39   10.60 
   5   2  12   97.49   11.00 
  -6  -2 -12  167.48   14.30 
   6   2  12  150.28   14.50 
   6   2  12  158.78   15.10 
  -7  -2 -12   -6.00    3.40 
   7   2  12   -1.30    5.00 
   7   2  12    1.60    3.80 
   0  -3 -12  322.67   22.50 
   0   3  12  317.77   22.30 
  -1  -3 -12   53.09    9.40 
  -2  -3 -12    2.00    3.50 
   2   3  12   11.00    5.40 
   2   3  12    4.60    3.90 
  -3  -3 -12  332.77   21.80 
   3   3  12  306.67   24.60 
   3   3  12  305.47   22.00 
   3   3  12  304.57   21.80 
  -4  -3 -12   35.10    8.50 
   4   3  12   51.99    8.90 
   4   3  12   44.60    8.80 
  -5  -3 -12   31.10    7.40 
   5   3  12   54.49   14.00 
   5   3  12   18.30    6.30 
   5   3  12   28.00    6.70 
   6   3  12   12.90    5.00 
   6   3  12    0.70    3.10 
   7   3  12   85.09   12.90 
   7   3  12  103.89   11.50 
   8   3  12    9.70    8.70 
   8   3  12   -4.50    4.30 
   0  -4 -12   65.59   10.80 
   0   4  12   59.49   10.50 
  -1  -4 -12  190.58   17.00 
  -2  -4 -12  342.07   23.80 
   2   4  12  346.87   23.10 
   2   4  12  309.67   23.40 
  -3  -4 -12   36.70    7.70 
   3   4  12   24.30    5.90 
   3   4  12   12.50    6.00 
   4   4  12    1.60    4.30 
   4   4  12    4.00    3.70 
   5   4  12   21.10    5.70 
   5   4  12   13.20    5.50 
   6   4  12   35.00    7.90 
   6   4  12   43.30    9.10 
   7   4  12   28.90    7.30 
   7   4  12   37.10    7.70 
  -1  -5 -12   -2.60    3.90 
  -2  -5 -12   49.70   12.40 
   2   5  12   46.60   12.00 
  -3  -5 -12   94.59   11.60 
   3   5  12   70.69   12.00 
   3   5  12   68.39    9.40 
   4   5  12  171.98   17.70 
   4   5  12  166.78   14.60 
   5   5  12   -1.70    3.60 
   5   5  12   -6.50    3.80 
   6   5  12    2.40    4.30 
   6   5  12   -3.30    3.00 
   7   5  12   98.19   12.90 
   7   5  12  130.79   14.00 
  -3  -6 -12   20.00    6.90 
   3   6  12   15.60    6.80 
   3   6  12   16.00    5.30 
   4   6  12   34.20    7.60 
   4   6  12   38.80    9.10 
   5   6  12   58.59   11.70 
   6   6  12  247.68   25.80 
   6   6  12  237.38   21.00 
   7   6  12   12.10    8.70 
  -1   1 -13  125.69   11.00 
  -2   1 -13   48.10    9.90 
  -2   1 -13   60.59    7.90 
   2  -1  13   28.70    9.10 
  -3   1 -13   90.99   12.90 
  -3   1 -13   81.59    8.90 
   3  -1  13   98.49   13.30 
   3  -1  13   82.19    9.30 
  -4   1 -13   30.90    7.70 
  -4   1 -13   26.40    5.40 
   4  -1  13   32.30    6.70 
   4  -1  13   29.90    8.10 
  -1   0 -13   37.70    6.70 
   1   0  13   38.30    9.30 
  -2   0 -13    8.70    4.50 
  -3   0 -13    2.40    5.10 
  -3   0 -13   12.80    4.40 
   3   0  13    5.60    5.40 
  -4   0 -13   30.20    6.60 
  -4   0 -13   53.09    8.60 
   4   0  13   26.30    8.70 
   4   0  13   14.20    7.30 
   5   0  13    6.40    4.20 
   5   0  13   -3.20    4.20 
  -1  -1 -13   15.40    5.40 
   1   1  13   12.10    6.20 
  -2  -1 -13   15.50    5.10 
   2   1  13    8.10    4.50 
   2   1  13   11.10    5.10 
  -3  -1 -13   23.80    6.20 
   3   1  13   23.40    5.50 
   3   1  13   20.40    6.30 
   4   1  13    3.90    5.10 
   4   1  13   -1.10    4.40 
   5   1  13    7.90    4.70 
   5   1  13   -7.30    4.20 
   6   1  13   28.20    6.70 
   6   1  13   30.70    8.60 
  -1  -2 -13   84.29   10.60 
   1   2  13   95.69   12.60 
  -2  -2 -13  158.88   14.30 
   2   2  13  153.68   15.00 
   2   2  13  131.29   14.20 
  -3  -2 -13  268.57   19.40 
   3   2  13  262.67   19.80 
   3   2  13  251.27   20.00 
   4   2  13  117.09   13.00 
   4   2  13  131.09   13.20 
   5   2  13    3.00    3.60 
   5   2  13   -7.30    4.50 
   6   2  13   10.90    6.00 
   6   2  13   17.90    5.00 
  -2  -3 -13    3.00    4.90 
   2   3  13    5.20    4.90 
   2   3  13   17.10    6.10 
  -3  -3 -13  256.07   18.80 
   3   3  13  214.08   19.20 
   3   3  13  208.68   18.60 
   4   3  13    8.40    5.30 
   4   3  13   -4.80    4.20 
   5   3  13   26.00    7.80 
   5   3  13   31.80    7.80 
   6   3  13    2.10    5.60 
   6   3  13    1.00    4.30 
  -2  -4 -13    7.10    5.60 
   2   4  13    1.40    4.20 
   2   4  13   -0.70    4.40 
  -3  -4 -13  240.58   21.10 
   3   4  13  252.07   20.00 
   3   4  13  245.08   33.00 
   4   4  13    8.60    5.60 
   4   4  13    0.30    4.30 
   5   4  13   35.20    8.10 
   5   4  13   43.80    9.00 
  -4  -5 -13   86.29   11.70 
   4   5  13  101.09   13.20 
   4   5  13   73.09   11.70 
   5   5  13    7.90    5.50 
   5   5  13   -5.70    6.80 
   0   0   0    0.00    0.00 
  
_computing_structure_solution     'SHELXT 2014/5 (Sheldrick, 2014)' 
;
_shelx_hkl_checksum              14741
loop_
_space_group_symop_operation_xyz
'x, y, z'
'-x, -y, -z'
loop_
_atom_site_label
_atom_site_type_symbol
_atom_site_fract_x
_atom_site_fract_y
_atom_site_fract_z
_atom_site_U_iso_or_equiv
_atom_site_adp_type
_atom_site_occupancy
_atom_site_site_symmetry_order
_atom_site_calc_flag
_atom_site_refinement_flags_posn
_atom_site_refinement_flags_adp
_atom_site_refinement_flags_occupancy
_atom_site_disorder_assembly
_atom_site_disorder_group
S1 S 0.08160(8) 0.86068(7) 0.86981(5) 0.0591(2) Uani 1 1 d . . . . .
O1 O 0.7464(2) 0.8107(2) 0.28898(14) 0.0629(4) Uani 1 1 d . . . . .
O2 O 0.63679(16) 0.68092(15) 0.48049(12) 0.0438(3) Uani 1 1 d . . . . .
C1 C 0.6080(3) 0.8034(2) 0.38022(17) 0.0439(4) Uani 1 1 d . . . . .
C2 C 0.4180(3) 0.9082(2) 0.39725(18) 0.0454(4) Uani 1 1 d . . . . .
C3 C 0.2834(3) 0.8847(2) 0.50981(18) 0.0451(4) Uani 1 1 d . . . . .
H3 H 0.1612 0.9548 0.5218 0.054 Uiso 1 1 calc R U . . .
C4 C 0.3179(2) 0.7581(2) 0.61200(16) 0.0391(4) Uani 1 1 d . . . . .
C5 C 0.4966(2) 0.6577(2) 0.59400(16) 0.0374(4) Uani 1 1 d . . . . .
C6 C 0.5738(2) 0.5238(2) 0.68124(17) 0.0407(4) Uani 1 1 d . . . . .
C8 C 0.6207(4) 0.3281(3) 0.8600(2) 0.0674(6) Uani 1 1 d . . . . .
C9 C 0.7926(3) 0.3083(3) 0.7751(3) 0.0661(6) Uani 1 1 d . . . . .
C10 C 0.1605(2) 0.7404(2) 0.73151(17) 0.0407(4) Uani 1 1 d . . . . .
C11 C 0.0596(2) 0.6330(2) 0.75021(18) 0.0464(4) Uani 1 1 d . . . . .
H11 H 0.0801 0.5582 0.6869 0.056 Uiso 1 1 calc R U . . .
C12 C -0.0809(3) 0.6525(3) 0.8804(2) 0.0565(5) Uani 1 1 d . . . . .
H12 H -0.1622 0.5903 0.9112 0.068 Uiso 1 1 calc R U . . .
C13 C -0.0844(3) 0.7683(3) 0.9535(2) 0.0596(6) Uani 1 1 d . . . . .
H13 H -0.1677 0.7954 1.0400 0.072 Uiso 1 1 calc R U . . .
C14 C 0.3853(3) 1.0374(3) 0.2868(2) 0.0628(6) Uani 1 1 d . . . . .
H14A H 0.4747 1.0956 0.2629 0.094 Uiso 1 1 calc R U . . .
H14B H 0.2612 1.1160 0.3178 0.094 Uiso 1 1 calc R U . . .
H14C H 0.3989 0.9831 0.2091 0.094 Uiso 1 1 calc R U . . .
S2 S 0.80857(14) 0.42555(18) 0.63855(15) 0.0508(3) Uani 0.7 1 d . U P A 1
C7 C 0.477(2) 0.467(2) 0.8074(13) 0.057(2) Uani 0.7 1 d . U P A 1
H7 H 0.3483 0.5062 0.8511 0.068 Uiso 0.7 1 calc R U P A 1
S2' S 0.4555(15) 0.4502(13) 0.8275(8) 0.0571(11) Uani 0.3 1 d . U P A 2
C7' C 0.7577(18) 0.451(2) 0.6556(18) 0.063(2) Uani 0.3 1 d . U P A 2
H7' H 0.8503 0.4768 0.5823 0.075 Uiso 0.3 1 calc R U P A 2
H9 H 0.897(5) 0.228(4) 0.788(3) 0.106(10) Uiso 1 1 d . . . . .
H8 H 0.588(4) 0.268(3) 0.944(3) 0.084(8) Uiso 1 1 d . . . . .
loop_
_atom_site_aniso_label
_atom_site_aniso_U_11
_atom_site_aniso_U_22
_atom_site_aniso_U_33
_atom_site_aniso_U_23
_atom_site_aniso_U_13
_atom_site_aniso_U_12
S1 0.0653(4) 0.0600(4) 0.0431(3) -0.0129(2) -0.0026(2) -0.0200(3)
O1 0.0567(9) 0.0728(10) 0.0450(8) 0.0029(7) 0.0015(6) -0.0243(7)
O2 0.0353(6) 0.0518(7) 0.0353(6) -0.0016(5) -0.0037(5) -0.0114(5)
C1 0.0493(10) 0.0474(9) 0.0345(8) -0.0031(7) -0.0084(7) -0.0194(8)
C2 0.0528(10) 0.0445(9) 0.0419(9) 0.0000(7) -0.0171(8) -0.0181(8)
C3 0.0401(9) 0.0463(9) 0.0474(10) -0.0018(8) -0.0163(8) -0.0098(7)
C4 0.0364(8) 0.0451(9) 0.0338(8) -0.0054(7) -0.0078(7) -0.0127(7)
C5 0.0350(8) 0.0432(8) 0.0315(8) -0.0061(6) -0.0062(6) -0.0125(7)
C6 0.0377(9) 0.0444(9) 0.0388(9) -0.0042(7) -0.0114(7) -0.0115(7)
C8 0.0793(16) 0.0668(14) 0.0547(13) 0.0154(11) -0.0262(12) -0.0249(12)
C9 0.0572(13) 0.0601(13) 0.0846(16) -0.0021(11) -0.0395(12) -0.0070(10)
C10 0.0330(8) 0.0447(9) 0.0362(8) -0.0049(7) -0.0073(7) -0.0056(7)
C11 0.0363(9) 0.0533(10) 0.0423(9) -0.0047(8) -0.0044(7) -0.0130(7)
C12 0.0462(11) 0.0638(12) 0.0505(11) 0.0076(9) -0.0065(8) -0.0204(9)
C13 0.0542(11) 0.0675(13) 0.0366(10) -0.0004(9) -0.0001(8) -0.0109(9)
C14 0.0764(15) 0.0577(12) 0.0580(12) 0.0143(10) -0.0279(11) -0.0265(11)
S2 0.0347(5) 0.0570(6) 0.0552(6) -0.0011(4) -0.0138(5) -0.0098(5)
C7 0.048(3) 0.060(3) 0.053(4) 0.025(3) -0.018(3) -0.016(2)
S2' 0.055(2) 0.064(2) 0.0442(18) 0.0167(17) -0.0139(16) -0.0203(12)
C7' 0.044(4) 0.063(4) 0.060(3) 0.003(3) -0.007(4) -0.004(3)
loop_
_atom_type_symbol
_atom_type_description
_atom_type_scat_dispersion_real
_atom_type_scat_dispersion_imag
_atom_type_scat_source
C C 0.0033 0.0016 'International Tables Vol C Tables 4.2.6.8 and 6.1.1.4'
H H 0.0000 0.0000 'International Tables Vol C Tables 4.2.6.8 and 6.1.1.4'
O O 0.0106 0.0060 'International Tables Vol C Tables 4.2.6.8 and 6.1.1.4'
S S 0.1246 0.1234 'International Tables Vol C Tables 4.2.6.8 and 6.1.1.4'
loop_
_geom_angle_atom_site_label_1
_geom_angle_atom_site_label_2
_geom_angle_atom_site_label_3
_geom_angle
C13 S1 C10 91.98(10)
C5 O2 C1 123.98(13)
O1 C1 O2 115.94(17)
O1 C1 C2 127.43(18)
O2 C1 C2 116.63(15)
C3 C2 C1 118.36(16)
C3 C2 C14 124.76(18)
C1 C2 C14 116.88(17)
C2 C3 C4 123.64(16)
C2 C3 H3 118.2
C4 C3 H3 118.2
C5 C4 C3 117.66(15)
C5 C4 C10 122.58(15)
C3 C4 C10 119.76(15)
C4 C5 O2 119.70(15)
C4 C5 C6 129.95(15)
O2 C5 C6 110.31(14)
C7' C6 C5 122.0(8)
C7 C6 C5 127.3(8)
C7' C6 S2' 110.9(9)
C5 C6 S2' 127.0(4)
C7 C6 S2 112.3(8)
C5 C6 S2 120.22(14)
C9 C8 S2' 120.9(4)
C9 C8 C7 110.8(5)
C9 C8 H8 126.2(17)
S2' C8 H8 112.9(17)
C7 C8 H8 122.9(18)
C8 C9 S2 116.04(18)
C8 C9 C7' 102.9(5)
C8 C9 H9 123(2)
S2 C9 H9 120(2)
C7' C9 H9 134(2)
C11 C10 C4 127.64(15)
C11 C10 S1 111.42(13)
C4 C10 S1 120.94(13)
C10 C11 C12 110.70(17)
C10 C11 H11 124.7
C12 C11 H11 124.7
C13 C12 C11 113.88(19)
C13 C12 H12 123.1
C11 C12 H12 123.1
C12 C13 S1 112.02(15)
C12 C13 H13 124.0
S1 C13 H13 124.0
C2 C14 H14A 109.5
C2 C14 H14B 109.5
H14A C14 H14B 109.5
C2 C14 H14C 109.5
H14A C14 H14C 109.5
H14B C14 H14C 109.5
C9 S2 C6 93.55(12)
C6 C7 C8 107.2(11)
C6 C7 H7 126.4
C8 C7 H7 126.4
C8 S2' C6 96.7(5)
C6 C7' C9 108.4(11)
C6 C7' H7' 125.8
C9 C7' H7' 125.8
loop_
_geom_bond_atom_site_label_1
_geom_bond_atom_site_label_2
_geom_bond_distance
S1 C13 1.704(2)
S1 C10 1.7175(17)
O1 C1 1.207(2)
O2 C5 1.3753(19)
O2 C1 1.386(2)
C1 C2 1.439(3)
C2 C3 1.345(3)
C2 C14 1.500(3)
C3 C4 1.429(2)
C3 H3 0.9300
C4 C5 1.354(2)
C4 C10 1.477(2)
C5 C6 1.453(2)
C6 C7' 1.335(13)
C6 C7 1.401(13)
C6 S2' 1.668(8)
C6 S2 1.7005(19)
C8 C9 1.330(4)
C8 S2' 1.485(12)
C8 C7 1.527(18)
C8 H8 0.96(3)
C9 S2 1.615(3)
C9 C7' 1.637(18)
C9 H9 0.92(4)
C10 C11 1.382(3)
C11 C12 1.431(3)
C11 H11 0.9300
C12 C13 1.335(3)
C12 H12 0.9300
C13 H13 0.9300
C14 H14A 0.9600
C14 H14B 0.9600
C14 H14C 0.9600
C7 H7 0.9300
C7' H7' 0.9300
loop_
_geom_hbond_atom_site_label_D
_geom_hbond_atom_site_label_H
_geom_hbond_atom_site_label_A
_geom_hbond_distance_DH
_geom_hbond_distance_HA
_geom_hbond_distance_DA
_geom_hbond_angle_DHA
_geom_hbond_site_symmetry_A
C11 H11 S2 0.93 3.02 3.682(2) 129.7 1_455
C12 H12 S2' 0.93 3.01 3.732(8) 136.0 2_567
C13 H13 O1 0.93 2.49 3.350(2) 154.2 1_456
C7 H7 S1 0.93 3.01 3.674(18) 129.3 .
C9 H9 O1 0.92(4) 2.61(3) 3.335(3) 136(3) 2_766
loop_
_geom_torsion_atom_site_label_1
_geom_torsion_atom_site_label_2
_geom_torsion_atom_site_label_3
_geom_torsion_atom_site_label_4
_geom_torsion
C5 O2 C1 O1 177.83(15)
C5 O2 C1 C2 -1.4(2)
O1 C1 C2 C3 -176.98(19)
O2 C1 C2 C3 2.2(2)
O1 C1 C2 C14 2.7(3)
O2 C1 C2 C14 -178.09(16)
C1 C2 C3 C4 -1.8(3)
C14 C2 C3 C4 178.48(18)
C2 C3 C4 C5 0.5(3)
C2 C3 C4 C10 -179.21(16)
C3 C4 C5 O2 0.4(2)
C10 C4 C5 O2 -179.92(14)
C3 C4 C5 C6 177.87(16)
C10 C4 C5 C6 -2.4(3)
C1 O2 C5 C4 0.2(2)
C1 O2 C5 C6 -177.81(14)
C4 C5 C6 C7' -171.4(9)
O2 C5 C6 C7' 6.3(10)
C4 C5 C6 C7 0.2(9)
O2 C5 C6 C7 177.9(9)
C4 C5 C6 S2' 3.7(5)
O2 C5 C6 S2' -178.6(4)
C4 C5 C6 S2 -175.65(16)
O2 C5 C6 S2 2.1(2)
S2' C8 C9 S2 0.8(5)
C7 C8 C9 S2 -2.3(7)
S2' C8 C9 C7' 3.9(8)
C7 C8 C9 C7' 0.9(10)
C5 C4 C10 C11 -84.6(2)
C3 C4 C10 C11 95.1(2)
C5 C4 C10 S1 95.25(18)
C3 C4 C10 S1 -85.02(18)
C13 S1 C10 C11 0.36(15)
C13 S1 C10 C4 -179.52(15)
C4 C10 C11 C12 179.43(17)
S1 C10 C11 C12 -0.4(2)
C10 C11 C12 C13 0.3(3)
C11 C12 C13 S1 0.0(2)
C10 S1 C13 C12 -0.18(17)
C8 C9 S2 C6 0.9(2)
C7' C9 S2 C6 -13(3)
C7' C6 S2 C9 61(12)
C7 C6 S2 C9 1.0(7)
C5 C6 S2 C9 177.40(15)
S2' C6 S2 C9 -2.0(4)
C7' C6 C7 C8 -6.0(14)
C5 C6 C7 C8 -178.3(4)
S2' C6 C7 C8 98(24)
S2 C6 C7 C8 -2.2(11)
C9 C8 C7 C6 2.8(12)
S2' C8 C7 C6 -163(6)
C9 C8 S2' C6 -1.9(6)
C7 C8 S2' C6 14(5)
C7' C6 S2' C8 -1.5(10)
C7 C6 S2' C8 -78(24)
C5 C6 S2' C8 -177.0(2)
S2 C6 S2' C8 2.4(6)
C7 C6 C7' C9 6.5(14)
C5 C6 C7' C9 179.4(5)
S2' C6 C7' C9 3.6(13)
S2 C6 C7' C9 -115(12)
C8 C9 C7' C6 -4.6(12)
S2 C9 C7' C6 163(4)
