#------------------------------------------------------------------------------
#$Date: 2020-08-04 05:10:40 +0300 (Tue, 04 Aug 2020) $
#$Revision: 254764 $
#$URL: file:///home/coder/svn-repositories/cod/cif/4/51/78/4517841.cif $
#------------------------------------------------------------------------------
#
# This file is available in the Crystallography Open Database (COD),
# http://www.crystallography.net/
#
# All data on this site have been placed in the public domain by the
# contributors.
#
data_4517841
loop_
_publ_author_name
'Pisarek, Joanna'
'Malinska, Maura'
_publ_section_title
;
 Structure and Morphology of Indole Analogue Crystals.
;
_journal_issue                   28
_journal_name_full               'ACS omega'
_journal_page_first              17141
_journal_page_last               17151
_journal_paper_doi               10.1021/acsomega.0c01020
_journal_volume                  5
_journal_year                    2020
_chemical_absolute_configuration unk
_chemical_formula_moiety         '1(C9 H9 N)'
_chemical_formula_sum            'C9 H9 N'
_chemical_formula_weight         131.17
_chemical_name_systematic        7-Methylindole
_space_group_crystal_system      orthorhombic
_space_group_IT_number           33
_space_group_name_Hall           'P 2c -2n'
_space_group_name_H-M_alt        'P n a 21'
_atom_sites_solution_hydrogens   geom
_atom_sites_solution_primary     direct
_audit_creation_date             2018-11-20
_audit_creation_method
;
Olex2 1.2
(compiled May 29 2018 13:30:08 for OlexSys, GUI svn.r5506)
;
_cell_angle_alpha                90
_cell_angle_beta                 90
_cell_angle_gamma                90
_cell_formula_units_Z            4
_cell_length_a                   9.3176(7)
_cell_length_b                   5.2878(4)
_cell_length_c                   14.2479(13)
_cell_measurement_reflns_used    2534
_cell_measurement_temperature    100.00(10)
_cell_measurement_theta_max      28.6630
_cell_measurement_theta_min      4.0970
_cell_volume                     701.99(10)
_computing_cell_refinement       'CrysAlisPro 1.171.38.46 (Rigaku OD, 2015)'
_computing_data_collection       'CrysAlisPro 1.171.38.46 (Rigaku OD, 2015)'
_computing_data_reduction        'CrysAlisPro 1.171.38.46 (Rigaku OD, 2015)'
_computing_molecular_graphics    'Olex2 (Dolomanov et al., 2009)'
_computing_publication_material  'Olex2 (Dolomanov et al., 2009)'
_computing_structure_refinement  'ShelXL (Sheldrick, 2015)'
_computing_structure_solution    'XS (Sheldrick, 2008)'
_diffrn_ambient_environment      N~2~
_diffrn_ambient_temperature      100.00(10)
_diffrn_detector                 'CCD plate'
_diffrn_detector_area_resol_mean 8.0013
_diffrn_detector_type            Eos
_diffrn_measured_fraction_theta_full 0.995
_diffrn_measured_fraction_theta_max 0.979
_diffrn_measurement_details
;
List of Runs (angles in degrees, time in seconds):

  # Type    Start    End  Width  t~exp~   \w     \q     \k     \f   Frames
--------------------------------------------------------------------------
  1  \w     -3.00  88.00   1.00   45.01    --   18.75  57.00 150.00   91
  2  \w     -7.00  91.00   1.00   45.01    --   18.75  37.00 -60.00   98
  3  \w    -25.00  92.00   1.00   45.01    --   18.75  19.00  90.00  117
  4  \w    -20.00  61.00   1.00   45.01    --   18.75 -99.00   0.00   81
  5  \w    -95.00 -21.00   1.00   45.01    --  -19.06 160.00 150.00   74
  6  \w    -89.00 -43.00   1.00   45.01    --  -19.06 -77.00 -60.00   46
  7  \w    -95.00 -21.00   1.00   45.01    --  -19.06 160.00  30.00   74
;
_diffrn_measurement_device       'four-circle diffractometer'
_diffrn_measurement_device_type  'SuperNova, Single source at offset, Eos'
_diffrn_measurement_method       '\w scans'
_diffrn_orient_matrix_type
'CrysAlisPro convention (1999,Acta A55,543-557)'
_diffrn_orient_matrix_UB_11      -0.0512850000
_diffrn_orient_matrix_UB_12      0.0333092000
_diffrn_orient_matrix_UB_13      0.0346860000
_diffrn_orient_matrix_UB_21      -0.0443780000
_diffrn_orient_matrix_UB_22      0.0535214000
_diffrn_orient_matrix_UB_23      -0.0352008000
_diffrn_orient_matrix_UB_31      -0.0345298000
_diffrn_orient_matrix_UB_32      -0.1183996000
_diffrn_orient_matrix_UB_33      -0.0061305000
_diffrn_radiation_monochromator  mirror
_diffrn_radiation_probe          x-ray
_diffrn_radiation_type           MoK\a
_diffrn_radiation_wavelength     0.71073
_diffrn_reflns_av_R_equivalents  0.0436
_diffrn_reflns_av_unetI/netI     0.0337
_diffrn_reflns_Laue_measured_fraction_full 0.995
_diffrn_reflns_Laue_measured_fraction_max 0.979
_diffrn_reflns_limit_h_max       12
_diffrn_reflns_limit_h_min       -11
_diffrn_reflns_limit_k_max       7
_diffrn_reflns_limit_k_min       -6
_diffrn_reflns_limit_l_max       18
_diffrn_reflns_limit_l_min       -18
_diffrn_reflns_number            7458
_diffrn_reflns_point_group_measured_fraction_full 0.995
_diffrn_reflns_point_group_measured_fraction_max 0.958
_diffrn_reflns_theta_full        25.242
_diffrn_reflns_theta_max         28.248
_diffrn_reflns_theta_min         4.111
_diffrn_source                   'micro-focus sealed X-ray tube'
_diffrn_source_type              'SuperNova (Mo) X-ray Source'
_exptl_absorpt_coefficient_mu    0.073
_exptl_absorpt_correction_T_max  1.00000
_exptl_absorpt_correction_T_min  0.46958
_exptl_absorpt_correction_type   multi-scan
_exptl_absorpt_process_details
;
CrysAlisPro 1.171.38.46 (Rigaku Oxford Diffraction, 2015)
Empirical absorption correction using spherical harmonics,
 implemented in SCALE3 ABSPACK scaling algorithm.
;
_exptl_crystal_colour            colourless
_exptl_crystal_colour_primary    colourless
_exptl_crystal_density_diffrn    1.241
_exptl_crystal_description       plate
_exptl_crystal_F_000             280
_exptl_crystal_size_max          0.3
_exptl_crystal_size_mid          0.2
_exptl_crystal_size_min          0.05
_refine_diff_density_max         0.112
_refine_diff_density_min         -0.110
_refine_diff_density_rms         0.023
_refine_ls_abs_structure_details
;
 Flack x determined using 511 quotients [(I+)-(I-)]/[(I+)+(I-)]
 (Parsons, Flack and Wagner, Acta Cryst. B69 (2013) 249-259).
;
_refine_ls_abs_structure_Flack   -3.5(10)
_refine_ls_extinction_method     none
_refine_ls_goodness_of_fit_ref   1.074
_refine_ls_hydrogen_treatment    constr
_refine_ls_matrix_type           full
_refine_ls_number_parameters     145
_refine_ls_number_reflns         1657
_refine_ls_number_restraints     1
_refine_ls_restrained_S_all      1.074
_refine_ls_R_factor_all          0.0566
_refine_ls_R_factor_gt           0.0389
_refine_ls_shift/su_max          0.000
_refine_ls_shift/su_mean         0.000
_refine_ls_structure_factor_coef Fsqd
_refine_ls_weighting_details
'w=1/[\s^2^(Fo^2^)+(0.0253P)^2^+0.0765P] where P=(Fo^2^+2Fc^2^)/3'
_refine_ls_weighting_scheme      calc
_refine_ls_wR_factor_gt          0.0784
_refine_ls_wR_factor_ref         0.0890
_reflns_Friedel_coverage         0.883
_reflns_Friedel_fraction_full    0.995
_reflns_Friedel_fraction_max     0.935
_reflns_number_gt                1300
_reflns_number_total             1657
_reflns_threshold_expression     'I > 2\s(I)'
_iucr_refine_instructions_details
;
TITL 2017_12_06_JP_7-Metylindole_heksan_rozowy in Pna21 #33
    2017_12_06_jp_7-metylindole_heksan_rozowy.res
    created by SHELXL-2018/3 at 13:21:06 on 20-Nov-2018
REM reset to Pna21 #33
CELL 0.71073 9.31759 5.287782 14.247862 90 90 90
ZERR 4 0.000719 0.000414 0.001301 0 0 0
LATT -1
SYMM -X,-Y,0.5+Z
SYMM 0.5-X,0.5+Y,0.5+Z
SYMM 0.5+X,0.5-Y,+Z
SFAC C H N
UNIT 36 36 4
EADP C6A C5A
EADP C8 C8A
EADP C10A C7A

L.S. 10
PLAN  3
SIZE 0.3 0.2 0.05
BOND
fmap 2
acta
SHEL 100 0.75
REM <olex2.extras>
REM <HklSrc "%./2017_12_06_JP_7-Metylindole_heksan_rozowy.hkl">
REM </olex2.extras>

WGHT    0.025300    0.076500
FVAR      10.96397   0.53514
PART 1
N1    3    0.040995    0.272726    0.259952    21.00000    0.02354    0.01938 =
         0.05642   -0.00317   -0.00303    0.00371
AFIX  43
H1    2   -0.014330    0.390769    0.280324    21.00000   -1.20000
AFIX   0
C10   1    0.051818    0.282421    0.474617    21.00000    0.04556    0.05759 =
         0.05750   -0.00344    0.00539   -0.00932
AFIX 137
H10A  2   -0.049742    0.259211    0.467236    21.00000   -1.50000
H10B  2    0.076813    0.453177    0.458598    21.00000   -1.50000
H10C  2    0.078196    0.249673    0.538606    21.00000   -1.50000
AFIX  66
C9    1    0.194540   -0.042417    0.254080    21.00000    0.02500    0.04008 =
         0.03448   -0.00658    0.00159   -0.01287
C8    1    0.118799    0.119862    0.312705    21.00000    0.01747    0.01804 =
         0.03606    0.00233    0.00040   -0.00305
C7    1    0.132290    0.098348    0.409535    21.00000    0.01514    0.02856 =
         0.05207   -0.00132    0.00146   -0.00579
C6    1    0.221523   -0.085444    0.447740    21.00000    0.03586    0.02878 =
         0.02592    0.00506    0.00221   -0.00223
AFIX  43
H6    2    0.230549   -0.099837    0.512525    21.00000   -1.20000
AFIX  65
C5    1    0.297265   -0.247725    0.389115    21.00000    0.02967    0.01931 =
         0.04938    0.00837    0.00012    0.00631
AFIX  43
H5    2    0.356967   -0.370694    0.414677    21.00000   -1.20000
AFIX  65
C4    1    0.283775   -0.226214    0.292285    21.00000    0.02724    0.01972 =
         0.04580    0.01155    0.00198    0.00399
AFIX  43
H4    2    0.334451   -0.334791    0.253062    21.00000   -1.20000
AFIX   0
C2    1    0.061620    0.215788    0.172222    21.00000    0.04847    0.05855 =
         0.03970    0.01274   -0.00575   -0.00997
AFIX  43
H2    2    0.016127    0.297648    0.122699    21.00000   -1.20000
AFIX   0
C3    1    0.154404    0.028646    0.161037    21.00000    0.04703    0.03667 =
         0.03567   -0.00276   -0.00409   -0.00400
AFIX  43
H3    2    0.186414   -0.041201    0.104908    21.00000   -1.20000
AFIX   0
PART 0
PART 2
C7A   1    0.130746    0.105177    0.215879   -21.00000    0.02701    0.01369 =
         0.02467    0.00325   -0.00614   -0.00015
C4A   1    0.288483   -0.233111    0.341225   -21.00000    0.01886    0.02501 =
         0.03846    0.01889   -0.00714    0.00350
AFIX  43
H4A   2    0.339971   -0.343065    0.379456   -21.00000   -1.20000
AFIX   0
C5A   1    0.297958   -0.244159    0.246023   -21.00000    0.01719    0.03265 =
         0.04949   -0.00950    0.00109   -0.00471
AFIX  43
H5A   2    0.357674   -0.365300    0.219299   -21.00000   -1.20000
AFIX   0
C10A  1    0.050384    0.275823    0.156034   -21.00000    0.02701    0.01369 =
         0.02467    0.00325   -0.00614   -0.00015
AFIX 137
H10D  2    0.060738    0.224534    0.091756   -21.00000   -1.50000
H10E  2    0.086404    0.444725    0.163495   -21.00000   -1.50000
H10F  2   -0.049203    0.271205    0.173223   -21.00000   -1.50000
AFIX  56
C9A   1    0.195501   -0.044214    0.379774   -21.00000    0.01675    0.01085 =
         0.04234    0.00131   -0.00488    0.00102
C8A   1    0.120796    0.115388    0.316231   -21.00000    0.01747    0.01804 =
         0.03606    0.00233    0.00040   -0.00305
N1A   3    0.035377    0.285082    0.369581   -21.00000    0.02386    0.02890 =
         0.02923   -0.00539    0.00219    0.00224
AFIX  43
H1A   2   -0.019919    0.400699    0.347343   -21.00000   -1.20000
AFIX  55
C2A   1    0.057290    0.230358    0.466096   -21.00000    0.02559    0.02905 =
         0.03302   -0.00276    0.00643   -0.01035
AFIX  43
H2A   2    0.014365    0.313253    0.516356   -21.00000   -1.20000
AFIX  55
C3A   1    0.156251    0.026842    0.472396   -21.00000    0.01775    0.04591 =
         0.03786    0.01107   -0.00330   -0.00164
AFIX  43
H3A   2    0.189518   -0.046955    0.527506   -21.00000   -1.20000
AFIX   0
C6A   1    0.221951   -0.081548    0.186350   -21.00000    0.01719    0.03265 =
         0.04949   -0.00950    0.00109   -0.00471
AFIX  43
H6A   2    0.234368   -0.101961    0.122029   -21.00000   -1.20000
AFIX   0
HKLF 4




REM  2017_12_06_JP_7-Metylindole_heksan_rozowy in Pna21 #33
REM wR2 = 0.0890, GooF = S = 1.074, Restrained GooF = 1.074 for all data
REM R1 = 0.0389 for 1300 Fo > 4sig(Fo) and 0.0566 for all 1657 data
REM 145 parameters refined using 1 restraints

END  
     
WGHT      0.0253      0.0765 

REM Highest difference peak  0.112,  deepest hole -0.110,  1-sigma level  0.023
Q1    1   0.2169  0.0653  0.2118  11.00000  0.05    0.11
Q2    1   0.2169  0.0604  0.4181  11.00000  0.05    0.11
Q3    1   0.1380 -0.0714  0.4161  11.00000  0.05    0.11

  REM The information below was added by Olex2.
  REM
  REM R1 = 0.0389 for 1300 Fo > 4sig(Fo) and 0.0566 for all 8290 data
  REM n/a parameters refined using n/a restraints
  REM Highest difference peak 0.11, deepest hole -0.11
  REM Mean Shift 0, Max Shift 0.000.

  REM +++ Tabular Listing of Refinement Information +++
  REM R1_all = 0.0566
  REM R1_gt = 0.0389
  REM wR_ref = 0.0890
  REM GOOF = 1.074
  REM Shift_max = 0.000
  REM Shift_mean = 0
  REM Reflections_all = 8290
  REM Reflections_gt = 1300
  REM Parameters = n/a
  REM Hole = -0.11
  REM Peak = 0.11
  REM Flack = -3.5(10)

  
;
_cod_data_source_file            ao0c01020_si_001.cif
_cod_data_source_block           7mI
_cod_depositor_comments
'Adding full bibliography for 4517840--4517846.cif.'
_cod_original_cell_volume        701.98(10)
_cod_database_code               4517841
_shelx_shelxl_version_number     2018/3
_chemical_oxdiff_formula         'C9 H9 N'
_chemical_oxdiff_usercomment     '100 K, colourless block'
_shelx_space_group_comment
;
The symmetry employed for this shelxl refinement is uniquely defined
by the following loop, which should always be used as a source of
symmetry information in preference to the above space-group names.
They are only intended as comments.
;
_shelx_estimated_absorpt_t_max   0.996
_shelx_estimated_absorpt_t_min   0.978
_reflns_odcompleteness_completeness 99.55
_reflns_odcompleteness_iscentric 1
_reflns_odcompleteness_theta     26.32
_olex2_refinement_description
;
1. Fixed Uiso
 At 1.2 times of:
  All C(H) groups, All N(H) groups
 At 1.5 times of:
  All C(H,H,H) groups
2. Uiso/Uaniso restraints and constraints
Uanis(C6A) = Uanis(C5A)
Uanis(C8) = Uanis(C8A)
Uanis(C10A) = Uanis(C7A)
3. Others
 Sof(C7A)=Sof(C4A)=Sof(H4A)=Sof(C5A)=Sof(H5A)=Sof(C10A)=Sof(H10D)=Sof(H10E)=
 Sof(H10F)=Sof(C9A)=Sof(C8A)=Sof(N1A)=Sof(H1A)=Sof(C2A)=Sof(H2A)=Sof(C3A)=
 Sof(H3A)=Sof(C6A)=Sof(H6A)=1-FVAR(1)
 Sof(N1)=Sof(H1)=Sof(C10)=Sof(H10A)=Sof(H10B)=Sof(H10C)=Sof(C9)=Sof(C8)=
 Sof(C7)=Sof(C6)=Sof(H6)=Sof(C5)=Sof(H5)=Sof(C4)=Sof(H4)=Sof(C2)=Sof(H2)=
 Sof(C3)=Sof(H3)=FVAR(1)
4.a Aromatic/amide H refined with riding coordinates:
 N1(H1), C6(H6), C5(H5), C4(H4), C2(H2), C3(H3), C4A(H4A), C5A(H5A), N1A(H1A),
 C2A(H2A), C3A(H3A), C6A(H6A)
4.b Fitted pentagon refined as free rotating group:
 C9A(C8A,N1A,C2A,C3A)
4.c Fitted hexagon refined as free rotating group:
 C9(C8,C7,C6,C5,C4)
4.d Idealised Me refined as rotating group:
 C10(H10A,H10B,H10C), C10A(H10D,H10E,H10F)
;
_olex2_date_sample_data_collection 2017-12-06
_olex2_submission_original_sample_id 7-Methylindole
_olex2_submission_special_instructions 'No special instructions were received'
_oxdiff_exptl_absorpt_empirical_details
;
Empirical correction (ABSPACK) includes:
- Absorption correction using spherical harmonics
- Frame scaling
;
_oxdiff_exptl_absorpt_empirical_full_max 1.512
_oxdiff_exptl_absorpt_empirical_full_min 0.650
loop_
_space_group_symop_operation_xyz
'x, y, z'
'-x, -y, z+1/2'
'-x+1/2, y+1/2, z+1/2'
'x+1/2, -y+1/2, z'
loop_
_atom_site_label
_atom_site_type_symbol
_atom_site_fract_x
_atom_site_fract_y
_atom_site_fract_z
_atom_site_U_iso_or_equiv
_atom_site_adp_type
_atom_site_occupancy
_atom_site_site_symmetry_order
_atom_site_calc_flag
_atom_site_refinement_flags_posn
_atom_site_refinement_flags_adp
_atom_site_refinement_flags_occupancy
_atom_site_disorder_assembly
_atom_site_disorder_group
N1 N 0.0410(5) 0.2727(7) 0.2600(4) 0.0331(13) Uani 0.535(5) 1 d . . P A 1
H1 H -0.014330 0.390769 0.280324 0.040 Uiso 0.535(5) 1 calc R . P A 1
C10 C 0.0518(11) 0.2824(19) 0.4746(8) 0.054(3) Uani 0.535(5) 1 d . . P A 1
H10A H -0.049742 0.259211 0.467236 0.080 Uiso 0.535(5) 1 calc GR . P A 1
H10B H 0.076813 0.453177 0.458598 0.080 Uiso 0.535(5) 1 calc GR . P A 1
H10C H 0.078196 0.249673 0.538606 0.080 Uiso 0.535(5) 1 calc GR . P A 1
C9 C 0.1945(5) -0.0424(8) 0.25408(11) 0.0332(16) Uani 0.535(5) 1 d . . P A 1
C8 C 0.1188(4) 0.1199(7) 0.3127(2) 0.0239(3) Uani 0.535(5) 1 d G . P A 1
C7 C 0.1323(4) 0.0983(7) 0.4095(2) 0.0319(14) Uani 0.535(5) 1 d G . P A 1
C6 C 0.2215(5) -0.0854(9) 0.44774(12) 0.0302(13) Uani 0.535(5) 1 d G . P A 1
H6 H 0.230549 -0.099837 0.512525 0.036 Uiso 0.535(5) 1 calc R . P A 1
C5 C 0.2973(5) -0.2477(8) 0.3891(3) 0.0328(14) Uani 0.535(5) 1 d G . P A 1
H5 H 0.356967 -0.370694 0.414677 0.039 Uiso 0.535(5) 1 calc R . P A 1
C4 C 0.2838(4) -0.2262(7) 0.2923(2) 0.0309(18) Uani 0.535(5) 1 d G . P A 1
H4 H 0.334451 -0.334791 0.253062 0.037 Uiso 0.535(5) 1 calc R . P A 1
C2 C 0.0616(13) 0.2158(17) 0.1722(7) 0.049(2) Uani 0.535(5) 1 d . . P A 1
H2 H 0.016127 0.297648 0.122699 0.059 Uiso 0.535(5) 1 calc R . P A 1
C3 C 0.1544(7) 0.0286(11) 0.1610(3) 0.0398(17) Uani 0.535(5) 1 d . . P A 1
H3 H 0.186414 -0.041201 0.104908 0.048 Uiso 0.535(5) 1 calc R . P A 1
C7A C 0.1307(6) 0.1052(9) 0.2159(3) 0.0218(12) Uani 0.465(5) 1 d . . P A 2
C4A C 0.2885(7) -0.2331(13) 0.3412(4) 0.0274(19) Uani 0.465(5) 1 d . . P A 2
H4A H 0.339971 -0.343065 0.379456 0.033 Uiso 0.465(5) 1 calc R . P A 2
C5A C 0.2980(7) -0.2442(14) 0.2460(4) 0.0331(14) Uani 0.465(5) 1 d . . P A 2
H5A H 0.357674 -0.365300 0.219299 0.040 Uiso 0.465(5) 1 calc R . P A 2
C10A C 0.0504(12) 0.2758(16) 0.1560(7) 0.0218(12) Uani 0.465(5) 1 d . . P A 2
H10D H 0.060738 0.224534 0.091756 0.033 Uiso 0.465(5) 1 calc GR . P A 2
H10E H 0.086404 0.444725 0.163495 0.033 Uiso 0.465(5) 1 calc GR . P A 2
H10F H -0.049203 0.271205 0.173223 0.033 Uiso 0.465(5) 1 calc GR . P A 2
C9A C 0.1955(5) -0.0442(8) 0.3798(2) 0.0233(16) Uani 0.465(5) 1 d . . P A 2
C8A C 0.1208(5) 0.1154(9) 0.3162(2) 0.0239(3) Uani 0.465(5) 1 d G . P A 2
N1A N 0.0354(4) 0.2851(7) 0.3696(4) 0.0273(14) Uani 0.465(5) 1 d G . P A 2
H1A H -0.019919 0.400699 0.347343 0.033 Uiso 0.465(5) 1 calc R . P A 2
C2A C 0.0573(6) 0.2304(11) 0.4661(3) 0.029(2) Uani 0.465(5) 1 d G . P A 2
H2A H 0.014365 0.313253 0.516356 0.035 Uiso 0.465(5) 1 calc R . P A 2
C3A C 0.1563(5) 0.0268(10) 0.47240(18) 0.0338(17) Uani 0.465(5) 1 d G . P A 2
H3A H 0.189518 -0.046955 0.527506 0.041 Uiso 0.465(5) 1 calc R . P A 2
C6A C 0.2220(7) -0.0815(13) 0.1864(4) 0.0331(14) Uani 0.465(5) 1 d . . P A 2
H6A H 0.234368 -0.101961 0.122029 0.040 Uiso 0.465(5) 1 calc R . P A 2
loop_
_atom_site_aniso_label
_atom_site_aniso_U_11
_atom_site_aniso_U_22
_atom_site_aniso_U_33
_atom_site_aniso_U_23
_atom_site_aniso_U_13
_atom_site_aniso_U_12
N1 0.024(3) 0.019(2) 0.056(4) -0.003(2) -0.003(2) 0.004(2)
C10 0.046(5) 0.058(5) 0.057(6) -0.003(4) 0.005(5) -0.009(4)
C9 0.025(3) 0.040(4) 0.034(4) -0.007(3) 0.002(3) -0.013(3)
C8 0.0175(6) 0.0180(6) 0.0361(8) 0.0023(15) 0.0004(18) -0.0031(5)
C7 0.015(3) 0.029(3) 0.052(4) -0.001(2) 0.001(2) -0.006(2)
C6 0.036(3) 0.029(3) 0.026(2) 0.005(2) 0.002(2) -0.002(2)
C5 0.030(3) 0.019(2) 0.049(4) 0.008(3) 0.000(3) 0.006(2)
C4 0.027(4) 0.020(3) 0.046(5) 0.012(4) 0.002(4) 0.004(2)
C2 0.048(5) 0.059(6) 0.040(5) 0.013(4) -0.006(4) -0.010(5)
C3 0.047(4) 0.037(3) 0.036(3) -0.003(3) -0.004(3) -0.004(4)
C7A 0.027(3) 0.014(2) 0.025(3) 0.0033(19) -0.006(2) 0.000(2)
C4A 0.019(4) 0.025(3) 0.038(4) 0.019(4) -0.007(4) 0.004(2)
C5A 0.017(3) 0.033(3) 0.049(3) -0.009(3) 0.001(3) -0.005(2)
C10A 0.027(3) 0.014(2) 0.025(3) 0.0033(19) -0.006(2) 0.000(2)
C9A 0.017(3) 0.011(3) 0.042(4) 0.001(2) -0.005(3) 0.001(2)
C8A 0.0175(6) 0.0180(6) 0.0361(8) 0.0023(15) 0.0004(18) -0.0031(5)
N1A 0.024(3) 0.029(3) 0.029(3) -0.005(2) 0.002(2) 0.002(2)
C2A 0.026(5) 0.029(4) 0.033(5) -0.003(3) 0.006(4) -0.010(3)
C3A 0.018(3) 0.046(4) 0.038(4) 0.011(3) -0.003(3) -0.002(3)
C6A 0.017(3) 0.033(3) 0.049(3) -0.009(3) 0.001(3) -0.005(2)
loop_
_atom_type_symbol
_atom_type_description
_atom_type_scat_dispersion_real
_atom_type_scat_dispersion_imag
_atom_type_scat_source
C C 0.0033 0.0016 'International Tables Vol C Tables 4.2.6.8 and 6.1.1.4'
H H 0.0000 0.0000 'International Tables Vol C Tables 4.2.6.8 and 6.1.1.4'
N N 0.0061 0.0033 'International Tables Vol C Tables 4.2.6.8 and 6.1.1.4'
loop_
_geom_angle_atom_site_label_1
_geom_angle_atom_site_label_2
_geom_angle_atom_site_label_3
_geom_angle
_geom_angle_site_symmetry_1
_geom_angle_site_symmetry_3
_geom_angle_publ_flag
C2 N1 C8 108.9(5) . . ?
C8 C9 C4 120.0 . . ?
C8 C9 C3 105.2(3) . . ?
C4 C9 C3 134.8(3) . . ?
N1 C8 C9 108.3(3) . . ?
N1 C8 C7 131.7(3) . . ?
C7 C8 C9 120.0 . . ?
C8 C7 C10 120.1(5) . . ?
C8 C7 C6 120.0 . . ?
C6 C7 C10 119.8(5) . . ?
C7 C6 C5 120.0 . . ?
C6 C5 C4 120.0 . . ?
C5 C4 C9 120.0 . . ?
N1 C2 C3 112.7(7) . . ?
C2 C3 C9 104.8(6) . . ?
C8A C7A C10A 122.0(6) . . ?
C6A C7A C10A 126.1(7) . . ?
C6A C7A C8A 111.9(4) . . ?
C5A C4A C9A 116.9(5) . . ?
C4A C5A C6A 123.1(6) . . ?
C8A C9A C4A 117.8(3) . . ?
C3A C9A C4A 134.2(3) . . ?
C3A C9A C8A 108.0 . . ?
C9A C8A C7A 125.6(3) . . ?
N1A C8A C7A 126.4(3) . . ?
N1A C8A C9A 108.0 . . ?
C8A N1A C2A 108.0 . . ?
C3A C2A N1A 108.0 . . ?
C9A C3A C2A 108.0 . . ?
C7A C6A C5A 124.7(5) . . ?
loop_
_geom_bond_atom_site_label_1
_geom_bond_atom_site_label_2
_geom_bond_distance
_geom_bond_site_symmetry_2
_geom_bond_publ_flag
N1 C8 1.321(4) . ?
N1 C2 1.300(11) . ?
C10 C7 1.539(11) . ?
C9 C8 1.3900 . ?
C9 C4 1.3900 . ?
C9 C3 1.428(5) . ?
C8 C7 1.3900 . ?
C7 C6 1.3900 . ?
C6 C5 1.3900 . ?
C5 C4 1.3900 . ?
C2 C3 1.324(12) . ?
C7A C10A 1.450(9) . ?
C7A C8A 1.434(6) . ?
C7A C6A 1.369(6) . ?
C4A C5A 1.361(7) . ?
C4A C9A 1.432(7) . ?
C5A C6A 1.401(8) . ?
C9A C8A 1.4200 . ?
C9A C3A 1.4200 . ?
C8A N1A 1.4200 . ?
N1A C2A 1.4200 . ?
C2A C3A 1.4200 . ?
loop_
_refln_index_h
_refln_index_k
_refln_index_l
_refln_F_squared_meas
_refln_F_squared_sigma
_refln_scale_group_code
0 0 -19 -61.9464 194.236 7
0 0 -18 844.636 262.169 7
0 0 -17 204.694 165.507 7
0 0 -17 -176.891 103.33 6
0 0 -16 15.1587 92.8603 6
0 0 -16 242.628 159.95 7
0 0 -15 89.7095 174.904 7
0 0 -15 -12.7066 77.1915 6
0 0 -14 16543.1 839.089 6
0 0 -13 27.3512 88.2796 6
0 0 -12 5856.26 462.295 6
0 0 -11 251.951 132.772 6
0 0 -10 40649.9 1136.69 6
0 0 -9 -78.7841 104.168 6
0 0 -8 1656.25 197.232 6
0 0 -7 124.158 50.5361 6
0 0 -6 33284.1 799.601 6
0 0 -5 494.953 112.233 6
0 0 -5 283.116 78.9139 1
0 0 -4 151851 1855.59 6
0 0 -4 156007 1918.52 2
0 0 -4 149315 1910.61 1
0 0 -3 30.5808 40.0662 2
0 0 -3 -8.5646 31.7283 1
0 0 -3 107.375 51.5387 6
0 0 3 99.6651 45.2601 2
0 0 3 67.7402 40.5682 1
0 0 4 151348 1895.55 1
0 0 4 152664 1906.76 2
0 0 5 382.814 90.595 1
0 0 5 274.038 85.0704 2
0 0 6 32960.7 816.748 1
0 0 7 414.075 94.9571 1
0 0 8 1818.47 211.583 1
0 0 9 -6.50916 43.9059 1
0 0 10 40984.7 1193.21 1
0 0 11 175.693 117.36 1
0 0 12 6724.7 518.592 1
0 0 13 -121.826 135.493 1
0 0 14 17612.9 953.042 1
0 0 15 43.7194 76.9953 1
0 0 16 211.378 171.234 1
0 0 17 -74.5582 121.269 1
0 0 18 1056.24 329.72 1
0 1 -19 7398.96 738.605 6
0 -1 -19 8094.12 822.624 7
0 1 -18 -48.8177 142.475 6
0 -1 -18 -159.652 229.43 7
0 -1 -17 -222.911 162.226 7
0 1 -17 180.887 189.662 6
0 -1 -16 -24.6569 87.756 7
0 1 -16 86.2402 130.411 6
0 -1 -15 855.3 226.556 7
0 -1 -15 757.233 171.89 6
0 1 -15 1318.82 278.478 6
0 1 -14 -159.291 130.605 6
0 -1 -14 -35.3524 86.0614 6
0 -1 -14 -79.1332 113.709 7
0 -1 -13 6636.67 476.787 6
0 -1 -13 7080.34 553.892 7
0 1 -13 6678.87 560.43 6
0 -1 -12 47.0062 76.0981 6
0 1 -12 133.91 98.3798 6
0 -1 -12 -68.8981 95.9522 7
0 1 -11 238.568 142.44 6
0 1 -11 347.948 148.226 2
0 -1 -11 151.106 93.1087 6
0 -1 -11 37.6981 74.0718 7
0 1 -10 52.6327 82.309 2
0 -1 -10 37.6961 52.8272 7
0 1 -10 27.3299 103.663 6
0 -1 -10 27.1491 78.1865 6
0 1 -9 7315.66 468.269 2
0 -1 -9 6962.34 442.334 7
0 -1 -9 7564.81 390.332 6
0 1 -9 7738.72 506.018 6
0 1 -8 129.747 83.9351 2
0 1 -8 92.0206 106.234 6
0 -1 -8 -8.13444 20.2679 5
0 -1 -8 -9.11933 44.1987 7
0 -1 -8 143.072 59.9252 6
0 1 -7 35160.1 984.243 6
0 1 -7 38541.6 985.756 2
0 -1 -7 37090 613.675 5
0 -1 -7 35783.9 920.433 7
0 -1 -7 35521.3 759.951 6
0 -1 -6 -14.8108 28.6843 5
0 -1 -6 -12.7106 39.3174 7
0 1 -6 -4.62957 33.489 1
0 1 -6 17.4461 28.1878 5
0 -1 -6 -17.7195 40.0435 6
0 1 -6 -32.2209 44.2511 2
0 1 -5 11396.9 399.074 1
0 1 -5 11608 454.67 2
0 -1 -5 12903.4 361.642 5
0 1 -5 11792.7 323.805 5
0 -1 -5 10334.1 309.016 6
0 -1 -5 11810.6 470.671 7
0 1 -4 53.607 25.4011 1
0 -1 -4 38.879 28.8602 1
0 1 -4 25.6239 39.4161 2
0 -1 -4 29.3958 25.8726 5
0 1 -4 25.7174 23.7427 5
0 -1 -4 -8.46621 44.2312 7
0 -1 -3 120707 1638.37 1
0 1 -3 129824 1743.53 2
0 -1 -3 130842 1551.32 5
0 1 -3 132178 1547.38 5
0 -1 -3 124414 1720.56 7
0 1 -3 131188 1473.69 1
0 1 -2 50.4832 22.333 1
0 -1 -2 193.813 59.8961 7
0 -1 -2 65.7495 33.3694 3
0 -1 -2 90.0438 38.1208 5
0 -1 -2 44.9487 26.9292 1
0 1 -2 61.8484 39.7059 2
0 1 -2 0.3108 38.7774 5
0 1 -1 51597.4 775.952 5
0 -1 -1 49871.8 776.905 5
0 1 -1 50388.8 736.693 3
0 1 -1 48460.1 834.487 2
0 1 -1 52010.4 833.321 4
0 -1 -1 50121.1 879.705 7
0 -1 -1 48668.3 686.022 1
0 1 0 -40.1002 37.4836 5
0 -1 0 0.25824 25.4946 5
0 1 0 -14.6052 38.652 7
0 -1 0 -38.8132 39.445 4
0 1 0 11.9096 28.8591 4
0 1 0 -18.7866 34.8996 2
0 1 1 48943.2 825.053 4
0 1 1 50094.1 761.818 5
0 -1 1 48384.3 836.199 2
0 1 1 48549.6 671.438 1
0 -1 1 52657.3 842.339 4
0 1 1 49829.5 861.242 7
0 -1 1 50038.4 775.815 5
0 1 2 9.70706 30.9561 5
0 1 2 -4.87016 28.9184 1
0 -1 2 39.7072 23.5607 1
0 -1 2 53.6618 37.4026 5
0 -1 2 68.6337 50.3726 4
0 1 2 18.0999 38.0681 7
0 -1 2 74.6615 37.3786 2
0 -1 3 126175 1736.14 2
0 1 3 118295 1631.86 1
0 1 3 130701 1510.52 5
0 1 3 128512 1676.11 7
0 -1 3 128589 1538.61 5
0 1 4 94.6205 53.4883 1
0 -1 4 3.65359 25.9919 1
0 -1 4 11.1609 26.4234 5
0 1 4 52.5454 36.4175 5
0 -1 4 35.4863 38.6432 2
0 1 4 -2.85568 32.0793 6
0 1 4 38.1512 31.9454 7
0 1 5 11563.2 306.695 5
0 1 5 11463.1 451.55 1
0 -1 5 11630 328.339 5
0 -1 5 11252.6 390.815 1
0 1 5 11042.8 341.765 6
0 1 6 51.729 50.1977 6
0 1 6 62.6186 59.4121 1
0 -1 6 -4.95229 21.791 5
0 -1 6 -14.2613 36.3349 1
0 1 7 37841.9 1000.1 1
0 -1 7 37567.6 899.361 1
0 -1 7 38647.5 657.409 5
0 -1 8 10.0825 18.4223 5
0 1 8 70.2787 68.3002 1
0 -1 8 66.8816 55.6258 1
0 1 9 7542.9 483.695 1
0 -1 9 7399.24 438.345 1
0 -1 10 5.40243 51.5689 1
0 1 10 12.6341 69.2376 1
0 1 11 297.664 133.029 1
0 -1 11 168.761 119.258 1
0 -1 12 64.9782 84.4983 1
0 1 12 -36.1293 88.3892 1
0 1 13 6372.62 569.747 1
0 -1 13 6399.24 524.182 1
0 1 14 2.50637 120.004 1
0 -1 14 15.3387 91.1424 1
0 1 15 1076.27 264.268 1
0 -1 15 860.107 225.152 1
0 1 16 -6.33023 90.0929 1
0 -1 16 63.7185 85.0524 1
0 -1 17 77.3064 108.592 1
0 1 17 82.3928 138.009 1
0 -1 18 182.736 173.222 1
0 -2 -18 174.597 118.96 7
0 -2 -18 -30.7873 119.572 3
0 -2 -17 2.45001 78.9887 3
0 2 -17 -61.9331 162.625 6
0 -2 -17 178.971 200.687 7
0 2 -16 415.142 175.971 6
0 -2 -16 623.965 224.964 7
0 2 -15 -165.017 146.504 6
0 -2 -15 -29.4352 114.854 7
0 2 -14 273.992 159.036 6
0 -2 -14 -3.35288 123.263 7
0 2 -14 311.514 166.413 2
0 -2 -13 -10.5149 105.829 7
0 2 -13 41.0192 74.8994 2
0 2 -12 159.149 125.015 6
0 2 -12 -3.39367 93.8917 2
0 -2 -12 54.0874 108.761 7
0 -2 -11 112.101 106.488 7
0 2 -11 289.261 154.201 6
0 2 -11 85.4897 93.9958 2
0 2 -10 7104.85 550.192 6
0 -2 -10 7295.76 544.468 7
0 2 -10 8267.99 560.454 2
0 -2 -10 7521.94 350.94 5
0 2 -9 141.544 87.371 2
0 -2 -9 -35.1844 63.8846 5
0 -2 -9 61.9117 97.473 7
0 2 -9 159.467 99.8952 6
0 -2 -8 7236.72 497.13 7
0 -2 -8 7418.19 364.054 5
0 2 -8 7175.68 475.204 2
0 2 -8 8257.15 543.989 6
0 2 -7 15.9246 29.6825 1
0 2 -7 -45.4084 60.3757 2
0 -2 -7 40.7494 39.0398 5
0 -2 -7 34.2543 61.0973 7
0 2 -6 1545.77 210.131 2
0 2 -6 1479.71 141.316 1
0 -2 -6 1571.46 174.979 3
0 -2 -6 1882.68 239.275 7
0 -2 -6 1804.59 179.695 5
0 -2 -5 28.8543 38.9955 3
0 -2 -5 124.281 87.3856 7
0 -2 -5 51.3266 47.4164 5
0 2 -5 168.135 85.4552 2
0 2 -5 2.76688 29.6638 1
0 -2 -4 8284.53 319.67 3
0 2 -4 7412.91 233.916 1
0 -2 -4 8723.49 389.677 5
0 2 -4 8078.78 442.262 2
0 -2 -4 7410.11 432.611 7
0 2 -3 54.91 19.3229 1
0 2 -3 75.8137 75.9816 2
0 -2 -3 89.148 47.2837 1
0 -2 -3 45.9849 26.6673 3
0 -2 -3 479.334 94.3315 5
0 2 -3 74.8159 51.0414 3
0 -2 -3 567.244 143.642 7
0 -2 -2 37036.5 986.611 7
0 -2 -2 37791 859.247 5
0 2 -2 37386.1 930.942 2
0 -2 -2 35096.8 581.343 3
0 2 -2 40777.8 927.178 4
0 2 -2 37546.8 808.563 3
0 -2 -2 38324.5 747.779 1
0 2 -1 -58.7646 63.5572 2
0 2 -1 19.3737 44.938 4
0 -2 -1 1.66347 40.6395 4
0 -2 -1 0.06736 22.0425 1
0 -2 -1 -6.76874 14.94 3
0 2 -1 59.0783 40.5804 3
0 -2 -1 120.709 83.1793 5
0 -2 -1 72.748 147.617 7
0 2 0 139754 2163.84 7
0 2 0 130562 1997.8 2
0 -2 0 133864 1912.37 5
0 2 0 135124 1648.83 3
0 -2 0 130815 1914.02 4
0 2 0 140261 2007.12 4
0 -2 1 76.4521 40.5106 2
0 2 1 19.3551 22.2518 1
0 2 1 37.7855 25.7895 3
0 2 1 120.385 154.39 7
0 2 1 37.0075 51.4245 4
0 -2 1 13.0198 48.9058 4
0 -2 1 56.6334 50.5788 5
0 -2 2 39192.5 869.372 5
0 2 2 37197.8 933.304 4
0 -2 2 38684.7 932.033 4
0 -2 2 36134.2 945.853 2
0 2 2 37456.7 556.744 3
0 2 2 37295.5 699.898 1
0 -2 3 23.1566 46.026 5
0 2 3 99.1281 49.8264 1
0 2 3 205.887 86.6738 4
0 -2 3 98.3618 70.2974 4
0 -2 4 7400.52 404.079 4
0 -2 4 7936.73 375.401 5
0 2 4 8555.42 382.349 1
0 -2 5 -29.5097 36.137 1
0 2 5 -1.8687 20.9799 6
0 -2 5 6.84033 46.966 5
0 2 5 32.3706 54.0603 1
0 -2 5 -70.6345 70.3592 4
0 2 6 1805.05 129.096 6
0 2 6 1738.7 205.367 1
0 -2 6 1863.81 234.78 4
0 -2 6 1848.88 189.111 5
0 -2 6 1472.32 162.049 1
0 2 7 163.384 78.4463 1
0 -2 7 28.6036 44.5666 1
0 2 7 65.1324 47.3481 6
0 -2 7 45.5153 73.529 4
0 -2 7 15.7581 38.5223 5
0 2 8 7926.18 489.288 1
0 -2 8 7546.23 374.086 5
0 -2 8 6628.3 384.607 1
0 2 9 48.8257 84.1208 1
0 -2 9 33.5268 47.7546 1
0 -2 9 -10.9543 38.5014 5
0 -2 10 7260.2 460.469 1
0 2 10 7678.2 542.326 1
0 -2 10 7565.62 370.205 5
0 2 11 -139.348 108.31 1
0 -2 11 -35.5112 61.1428 5
0 -2 11 -30.1783 81.4124 1
0 -2 12 -13.0258 77.8772 1
0 2 12 109.978 105.511 1
0 2 13 7.69205 90.4575 1
0 -2 13 -45.2609 88.833 1
0 2 14 22.0152 74.5861 1
0 -2 14 -110.995 116.894 1
0 2 15 -191.064 140.693 1
0 -2 15 -96.2722 90.5865 1
0 2 16 413.628 201.537 1
0 -2 16 443.393 169.69 1
0 -2 17 -38.1789 97.6317 1
0 -3 -17 107.095 152.882 7
0 3 -16 -34.3006 145.881 6
0 -3 -16 317.456 229.144 7
0 3 -16 -6.5556 101.223 2
0 3 -15 2968.69 477.084 6
0 -3 -15 2037.68 389.797 7
0 3 -15 3054.95 462.941 2
0 3 -14 23.015 90.2475 2
0 -3 -14 391.753 229.039 7
0 3 -14 168.472 160.804 6
0 -3 -13 107.188 63.817 3
0 3 -13 333.33 154.695 2
0 3 -13 228.77 152.942 6
0 -3 -13 559.203 252.199 7
0 -3 -12 -23.6446 96.3028 7
0 -3 -12 -93.6386 77.237 3
0 3 -12 -37.6029 88.7994 2
0 3 -11 34145 1284.74 2
0 -3 -11 31452.4 1162.71 3
0 -3 -11 30334.4 1317.07 7
0 3 -11 28843.8 1260.52 6
0 3 -10 137.885 129.086 2
0 -3 -10 -29.6033 75.5658 3
0 -3 -10 5.36622 83.4476 7
0 -3 -10 18.8665 59.9403 5
0 -3 -9 22289.5 857.413 3
0 -3 -9 23934.2 828.149 5
0 -3 -9 20355.9 997.849 7
0 3 -9 20537.2 982.729 6
0 3 -9 23193.7 979.083 2
0 -3 -8 33.9909 51.6941 3
0 3 -8 107.591 87.2374 2
0 -3 -8 -117.183 143.444 7
0 -3 -8 -38.1694 78.1182 5
0 -3 -7 123.795 69.8251 3
0 3 -7 136.201 50.4727 1
0 3 -7 118.435 55.2314 2
0 -3 -7 64.2724 62.493 7
0 -3 -7 12.0894 50.884 5
0 -3 -6 77.9365 95.4872 7
0 3 -6 104.228 78.908 2
0 -3 -6 -5.61565 45.939 3
0 -3 -6 -79.6258 59.4732 5
0 3 -6 51.7943 23.3951 1
0 -3 -5 3796.07 228.192 3
0 -3 -5 4249.23 341.92 5
0 -3 -5 3871.25 390.642 7
0 3 -5 4244.83 374.523 2
0 3 -5 3352.05 142.036 1
0 -3 -4 0.13116 97.5024 7
0 3 -4 189.442 121.91 2
0 -3 -4 -27.7439 83.0829 5
0 -3 -4 95.7726 34.0591 3
0 -3 -3 71961.6 1715.64 7
0 -3 -3 71367 950.823 3
0 -3 -3 72263 1344.32 1
0 -3 -3 73906.7 1531.25 5
0 3 -3 78592.5 1658.93 2
0 -3 -2 14.8429 13.0116 3
0 -3 -2 28.5783 31.645 1
0 3 -2 17.935 34.3113 3
0 -3 -2 34.2197 75.3694 5
0 -3 -2 -42.644 104.762 7
0 3 -2 -31.9629 71.4705 2
0 -3 -1 1186.54 178.68 5
0 3 -1 1231.43 144.215 3
0 3 -1 1081.46 174.032 2
0 -3 0 -11.0638 47.3925 5
0 3 0 17.31 34.5059 3
0 3 0 15.6589 17.5496 1
0 3 0 13.8285 49.3222 2
0 -3 0 -60.3191 60.1866 4
0 3 1 1169.91 105.342 1
0 -3 1 1333.63 193.229 5
0 3 1 1232.18 117.747 3
0 3 1 1004.99 184.296 2
0 -3 1 1093.18 175.817 4
0 -3 2 1.00257 52.345 5
0 -3 2 66.5969 64.8856 4
0 3 2 32.9217 40.969 1
0 3 2 87.3498 105.358 2
0 3 2 15.8142 16.0266 3
0 3 3 71152.8 1240.53 1
0 -3 3 77765.8 1674.18 4
0 -3 3 75662.6 1541.5 5
0 -3 4 20.7902 65.8846 4
0 3 4 120.437 59.7464 1
0 -3 4 44.2903 67.0237 5
0 3 5 3735.26 296.709 1
0 -3 5 4320.19 342.526 5
0 -3 5 4024.63 364.707 4
0 3 6 129.551 46.6001 6
0 -3 6 91.0072 55.6742 4
0 -3 6 -34.0022 79.3181 5
0 3 6 18.2245 65.7004 1
0 3 7 185.322 110.595 1
0 -3 7 6.84727 87.62 4
0 -3 7 21.2788 55.5282 5
0 3 7 138.792 41.3838 6
0 -3 8 -18.3957 52.8574 5
0 -3 8 130.013 99.6479 4
0 3 8 112.622 85.7613 1
0 -3 9 22835.2 822.812 5
0 -3 9 21050.5 1007.71 4
0 -3 9 20509.6 735.197 1
0 3 9 22538.1 914.625 1
0 -3 10 171.405 152.999 4
0 -3 10 25.2925 68.2949 1
0 3 10 60.4654 70.8917 1
0 -3 10 -80.9423 106.814 5
0 -3 11 32227.9 1001.74 5
0 -3 11 33295.5 1401.89 4
0 -3 11 30642.2 1032.7 1
0 3 11 32766.3 1241.05 1
0 3 12 -97.4441 89.1082 1
0 -3 12 12.6515 57.7682 1
0 -3 13 425.005 187.557 4
0 3 13 361.392 175.038 1
0 3 14 -49.1446 115.291 1
0 -3 14 59.7838 123.2 4
0 3 15 3054.98 467.925 1
0 -3 15 2523.31 445.891 4
0 3 16 -102.932 122.885 1
0 -3 16 60.4442 204.157 4
0 -4 -16 920.593 323.176 7
0 -4 -15 -289.765 176.483 7
0 4 -14 970.386 275.981 2
0 4 -14 1118.8 320.309 6
0 -4 -14 858.034 301.34 7
0 4 -13 128.762 148.002 2
0 -4 -13 104.871 151.463 7
0 4 -13 -288.894 217.903 6
0 4 -12 -10.4827 79.6081 2
0 -4 -12 336.52 245.949 7
0 4 -12 464.391 224.412 6
0 4 -11 54.2334 113.916 2
0 -4 -11 -17.9178 155.756 7
0 4 -11 95.3197 146.516 6
0 4 -10 32694 1420.31 6
0 -4 -10 37299.4 1234.18 5
0 4 -10 39051.5 1441.71 2
0 -4 -10 36038.7 1572.45 7
0 4 -9 453.575 213.391 6
0 -4 -9 117.836 105.202 5
0 -4 -9 256.422 178.11 7
0 4 -9 168.623 155.779 2
0 -4 -8 19523.1 1073.87 7
0 4 -8 22331.4 1031.96 2
0 -4 -8 22367.5 942.526 5
0 -4 -7 64.7017 97.0985 5
0 4 -7 -30.8046 68.4439 2
0 -4 -6 317.623 111.205 5
0 -4 -6 199.428 112.299 7
0 4 -6 183.449 117.679 2
0 -4 -5 16.1312 90.3654 7
0 4 -5 -6.0823 66.6542 2
0 -4 -5 -121.823 97.0185 5
0 -4 -4 3297.45 421.555 7
0 4 -4 2060.19 292.366 2
0 -4 -4 2214.47 281.322 5
0 4 -3 -29.7147 59.0257 2
0 -4 -3 -115.079 116.783 5
0 4 -2 379.133 125.891 2
0 -4 -2 60.6197 61.8909 5
0 -4 -1 -35.2494 69.0584 5
0 4 -1 11.7625 69.1493 2
0 4 -1 2.1379 41.178 3
0 -4 0 34786.6 1136.16 5
0 4 0 34758.7 1208.62 2
0 4 0 34758.2 815.34 3
0 4 0 30724.1 577.524 1
0 -4 0 37970.8 1167.7 4
0 4 1 -46.2518 76.1474 2
0 -4 1 51.5593 94.0772 4
0 4 1 78.7426 44.6419 1
0 4 1 15.5377 26.6464 3
0 -4 1 79.2383 83.8829 5
0 -4 2 217.861 101.419 5
0 4 2 284.339 70.9132 1
0 -4 2 272.208 111.708 4
0 4 2 244.321 114.472 2
0 4 3 -4.19014 98.5883 2
0 -4 3 73.0588 63.2472 5
0 -4 3 91.7314 84.8916 4
0 4 3 54.4077 52.0616 1
0 -4 4 2347.79 282.072 5
0 -4 4 1959.87 275.931 4
0 4 4 1829.46 200.405 1
0 -4 5 3.07486 81.4862 4
0 -4 5 -48.363 83.7081 5
0 4 5 -33.9916 49.2892 1
0 -4 6 348.393 155.945 4
0 4 6 223.894 93.5596 1
0 -4 6 267.049 109.416 5
0 -4 7 66.3379 77.345 5
0 4 7 16.3283 75.2249 1
0 -4 7 165.129 116.064 4
0 -4 8 21347.8 1054.23 4
0 4 8 19476.1 842.104 1
0 -4 8 23398.7 976.453 5
0 4 9 5.6321 75.5653 1
0 -4 9 -198.784 123.256 5
0 -4 10 38882.8 1286.1 5
0 4 10 33535.5 1240.25 1
0 -4 10 36574.5 1534.5 4
0 -4 11 -31.3042 91.133 5
0 4 11 1.39817 82.8359 1
0 -4 11 -17.7083 112.829 4
0 -4 12 -142.556 144.596 4
0 4 12 117.119 117.234 1
0 -4 13 -104.51 104.031 4
0 4 13 -44.4737 86.3408 1
0 -4 14 1291.4 368.533 4
0 4 14 911.92 246.217 1
0 -4 15 120.358 141.267 4
0 -4 16 823.129 293.531 4
0 -5 -14 50.9449 136.782 7
0 -5 -13 135.424 159.04 7
0 5 -12 -11.5375 111.898 2
0 -5 -12 -68.6829 142.834 7
0 5 -11 1282.72 339.911 6
0 5 -11 476.806 212.056 2
0 -5 -11 629.622 246.614 7
0 5 -10 -14.9583 113.281 2
0 -5 -10 -177.462 176.352 7
0 5 -10 17.435 144.002 6
0 -5 -10 -147.108 136.507 5
0 -5 -9 2055.13 408.507 7
0 5 -9 2405.56 385.922 2
0 -5 -9 1856.07 312.279 5
0 5 -9 2243.33 413.262 6
0 5 -8 250.125 171.013 6
0 -5 -8 247.972 129.532 7
0 -5 -8 158.862 131.975 5
0 5 -8 3.7966 85.9383 2
0 -5 -7 2554.78 366.982 5
0 5 -7 2180.15 349.799 2
0 -5 -7 2623.5 428.927 7
0 -5 -6 -71.1032 113.333 5
0 5 -6 -173.844 129.468 2
0 5 -5 29.864 86.6559 2
0 -5 -5 159.666 147.284 5
0 -5 -4 -7.11041 76.5525 5
0 5 -4 -52.4239 111.4 2
0 -5 -3 19504.9 985.205 5
0 5 -3 19388.6 1003.31 2
0 5 -2 -53.1109 92.0516 2
0 -5 -2 -74.9369 96.2834 5
0 -5 -1 9195.3 666.356 5
0 5 -1 9112.73 682.865 2
0 5 0 62.1994 72.8073 2
0 -5 0 14.119 76.9871 5
0 -5 1 8592.27 607.968 4
0 -5 1 8968.13 659.033 5
0 5 1 9020.15 708.79 2
0 -5 2 -35.2111 92.7943 5
0 5 2 -96.9701 124.074 2
0 -5 2 -119.344 72.5673 4
0 5 3 21458.4 1151.1 2
0 -5 3 17623 929.008 5
0 -5 3 16937.1 870.163 4
0 5 4 -188.906 172.217 2
0 -5 4 -123.999 88.0626 5
0 -5 4 -153.716 126.884 4
0 5 5 94.0442 116.989 2
0 -5 5 305.366 184.989 5
0 -5 5 301.473 150.436 4
0 -5 6 83.3811 119.601 5
0 -5 6 -46.8376 105.116 4
0 -5 7 2197.61 355.948 4
0 5 7 2107.25 278.012 1
0 -5 7 2588.66 373.635 5
0 5 8 84.8252 55.9402 1
0 -5 8 54.4121 91.3376 4
0 -5 8 63.8743 137.417 5
0 -5 9 1968.81 321.654 5
0 5 9 1718.3 272.705 1
0 -5 9 2713.83 437.027 4
0 5 10 35.1724 88.2975 1
0 -5 10 -125.309 141.021 5
0 5 11 564.631 197.364 1
0 5 12 136.79 126.991 1
0 5 13 116.934 105.096 1
0 6 -10 256.492 157.141 2
0 6 -9 35.7028 137.48 2
0 -6 -9 -0.47856 104.977 5
0 6 -9 391.359 251.829 6
0 6 -8 270.177 260.822 6
0 -6 -8 42.2625 110.756 5
0 6 -8 -233.435 179.074 2
0 -6 -7 60.4844 168.555 5
0 6 -7 310.201 160.857 2
0 6 -7 301.373 200.704 6
0 6 -6 504.336 204.08 2
0 -6 -6 286.539 164.85 5
0 6 -6 599.533 249.44 6
0 6 -5 324.824 197.065 6
0 -6 -5 287.723 186.043 5
0 6 -5 156.541 170.543 2
0 -6 -4 1464.86 328.904 5
0 6 -4 1522.91 341.275 2
0 -6 -3 191.99 161.709 5
0 6 -3 106.417 88.6715 2
0 -6 -2 6340.46 630.963 5
0 6 -2 6680.39 643.866 2
0 6 -1 9.90876 102.292 2
0 -6 -1 173.456 128.84 5
0 -6 0 32974.1 1435.1 5
0 6 0 34943.8 1525.42 2
0 6 1 -81.6076 89.545 2
0 -6 1 185.349 156.525 5
0 -6 2 7036.94 653.228 5
0 6 2 5884.35 637.421 2
0 6 3 -169.335 167.372 2
0 -6 3 41.976 101.264 5
0 -6 4 1477.48 319.758 5
0 6 4 1208.08 289.944 2
0 -6 5 209.688 137.156 5
0 6 5 159.054 169.805 2
0 6 6 233.503 172.377 2
0 -6 6 361.643 194.278 5
0 6 7 101.425 128.141 2
0 -6 7 125.653 106.736 5
0 6 8 176.519 147.783 2
0 -6 8 -266.47 179.033 5
0 -6 9 41.3484 120.488 5
0 6 9 111.989 160.293 2
0 -6 10 -197.72 170.081 5
1 0 -18 -119.211 111.344 7
-1 0 -18 207.227 184.655 7
-1 0 -17 -169.287 163.656 6
-1 0 -17 241.225 166.963 7
1 0 -17 57.8215 139.451 7
-1 0 -16 264.298 219.276 7
1 0 -16 84.2675 120.947 6
1 0 -16 176.031 160.221 7
-1 0 -16 -245.278 158.343 6
-1 0 -15 97.0828 142.42 7
1 0 -15 258.125 168.362 7
1 0 -15 12.0791 81.1365 6
1 0 -14 205.227 128.105 6
-1 0 -14 4.08985 110.395 6
1 0 -13 85.8829 83.3546 6
-1 0 -13 -111.769 82.3779 6
-1 0 -12 115.961 131.666 6
1 0 -12 38.3492 64.4294 6
-1 0 -11 -58.3834 89.5842 6
1 0 -11 2069.68 291.146 6
1 0 -10 -163.451 64.2597 6
-1 0 -10 126.393 112.592 6
-1 0 -9 174.033 128.647 6
1 0 -9 444.999 168.646 6
1 0 -8 559.015 155.506 6
-1 0 -8 515.338 153.932 6
-1 0 -8 407.458 134.852 2
-1 0 -7 344.498 139.338 6
-1 0 -7 114.151 109.437 2
-1 0 -6 1005.13 180.005 6
-1 0 -6 439.759 115.33 2
-1 0 -5 136.978 63.9267 2
-1 0 -5 138.587 66.3377 1
1 0 -5 276.965 91.5991 1
-1 0 -5 200.74 92.4341 6
-1 0 -4 24.1267 35.9173 2
-1 0 -4 29.4283 39.3854 1
-1 0 -3 114.728 57.9674 2
-1 0 -3 86.4509 49.8181 6
-1 0 -3 204.478 62.927 3
1 0 -3 108.194 57.9271 1
-1 0 -3 158.618 66.8619 1
1 0 -2 -37.6596 33.4506 3
-1 0 -2 17.8164 25.4872 6
1 0 -2 45.537 32.4952 1
-1 0 -2 9.1466 21.1528 2
-1 0 -2 50.3226 31.0312 3
-1 0 -1 14.1497 30.3468 3
-1 0 -1 10.4457 15.6044 2
1 0 -1 24.5132 29.296 3
1 0 0 -10.7032 19.0508 4
-1 0 0 -1.64819 15.4515 3
-1 0 0 24.0245 19.5293 4
1 0 0 3.68664 18.0446 3
-1 0 1 54.1579 26.4196 4
1 0 1 19.8947 30.2916 3
-1 0 1 9.96659 21.5289 3
1 0 1 31.1216 20.1758 2
1 0 2 8.64975 30.0381 6
-1 0 2 15.4934 28.727 1
1 0 2 18.259 19.3237 2
1 0 2 48.0203 30.7765 1
1 0 2 -10.7741 25.6636 3
1 0 3 113.135 60.1055 6
1 0 3 115.807 58.994 1
-1 0 3 185.294 63.3506 1
1 0 3 145.206 50.0013 2
-1 0 4 -2.47644 32.4116 2
-1 0 4 -16.3718 44.3644 1
1 0 4 37.7212 35.707 1
1 0 4 -13.4433 37.3322 2
-1 0 5 69.8342 59.2818 1
1 0 5 133.244 71.9504 2
1 0 5 138.772 66.402 1
1 0 5 100.284 78.665 6
-1 0 5 199.447 66.2979 2
-1 0 6 221.848 110.101 1
1 0 6 254.242 104.736 1
1 0 7 130.707 80.6299 1
-1 0 7 72.6873 76.0732 1
1 0 8 319.88 139.794 1
-1 0 8 431.038 138.393 1
1 0 9 79.8327 53.7712 1
-1 0 9 15.0356 55.07 1
1 0 10 7.34124 63.6383 1
-1 0 10 -94.66 96.0696 1
-1 0 11 51.0149 78.6819 1
1 0 11 19.5831 103.234 1
1 0 12 108.301 105.352 1
-1 0 12 65.3211 68.3119 1
1 0 13 293.895 150.833 1
-1 0 13 158.139 154.766 1
-1 0 14 -86.5563 117.755 1
1 0 14 54.0718 100.897 1
1 0 15 163.595 122.683 1
-1 0 15 -67.8885 89.8978 1
1 0 16 8.66595 98.0494 1
-1 0 16 -130.164 139.962 1
1 0 17 6.89939 97.1373 1
-1 0 17 30.6229 99.5218 1
1 0 18 129.633 142.226 1
-1 0 18 66.012 139.314 1
-1 1 -19 475.525 218.652 6
1 -1 -18 432.281 223.976 3
-1 -1 -18 427.233 175.637 7
1 1 -18 226.619 158.861 6
-1 1 -18 433.843 207.449 6
1 -1 -18 183.266 183.07 7
1 -1 -17 68.6846 133.39 7
-1 1 -17 96.1504 104.579 6
1 1 -17 263.422 165.033 6
-1 -1 -17 -31.1597 116.239 7
-1 1 -16 -77.8412 104.077 6
-1 -1 -16 30.6276 160.929 7
1 1 -16 -280.183 157.837 6
1 -1 -16 -127.794 88.7415 7
-1 -1 -15 785.694 263.588 7
1 1 -15 872.531 204.978 6
-1 1 -15 1481.05 305.447 6
1 -1 -15 1071.64 242.424 7
1 -1 -14 960.66 219.655 7
1 1 -14 912.096 232.739 6
-1 -1 -14 687.161 223.528 7
1 -1 -14 1109.55 203.828 6
-1 1 -14 1075.5 258.862 6
-1 1 -13 3139.87 401.335 6
-1 1 -13 3561.24 417.167 2
1 1 -13 2700.62 357.744 6
-1 -1 -13 2637.89 361.613 7
1 -1 -13 2666 288.576 6
-1 -1 -13 2366.11 306.393 6
1 -1 -13 2581.4 327.124 7
1 -1 -12 2640.84 274.387 6
-1 1 -12 3149.01 369.548 2
-1 1 -12 3238.17 385.644 6
1 -1 -12 2286.2 284.644 7
-1 -1 -12 2838.22 343.656 7
1 1 -12 2809.17 344.488 6
-1 -1 -12 2860.62 307.366 6
1 1 -11 631.773 185.52 6
-1 -1 -11 296.97 118.155 6
-1 -1 -11 438.4 168.814 7
-1 1 -11 67.2296 99.1454 6
1 -1 -11 356.014 135.998 7
-1 1 -11 229.363 114.625 2
1 -1 -11 229.911 76.7312 6
1 -1 -10 1420.26 207.216 7
1 1 -10 1072.48 219.23 6
1 -1 -10 1400.78 179.576 6
-1 1 -10 1237.66 218.308 6
-1 1 -10 1413.15 225.79 2
-1 -1 -10 1313.49 220.003 7
1 -1 -10 914.07 67.9141 5
-1 -1 -10 1320.32 194.573 6
-1 -1 -9 129.737 76.5162 7
1 -1 -9 191.143 95.6805 7
1 -1 -9 58.7958 64.0994 6
-1 1 -9 126.206 89.6238 6
1 1 -9 -4.1079 27.5151 5
1 -1 -9 -21.2623 18.4486 5
1 1 -9 64.4596 65.9794 2
-1 1 -9 89.2103 75.6495 2
-1 -1 -9 32.0885 51.0765 6
1 -1 -8 4099.34 255.627 6
-1 -1 -8 3416.73 305.294 7
1 1 -8 3456.16 304.326 2
-1 1 -8 3664.79 317.252 2
1 -1 -8 3444.35 273.146 7
-1 1 -8 3685.51 332.06 6
1 1 -8 3391.04 175.671 5
1 -1 -8 3521.22 173.344 5
1 -1 -7 5875.52 228.723 5
1 -1 -7 5459.84 327.763 7
1 1 -7 6259.08 251.344 5
-1 -1 -7 5540.54 369.199 7
-1 1 -7 5893.57 393.209 6
1 1 -7 6226.44 371.593 2
-1 1 -7 5774.45 373.802 2
1 -1 -7 5963.55 270.585 6
-1 1 -6 423.268 110.889 2
-1 -1 -6 409.882 100.847 7
1 -1 -6 412.585 62.8003 5
-1 1 -6 411.184 92.2704 1
1 -1 -6 516.401 72.0709 6
1 1 -6 436.835 72.6723 5
-1 1 -6 477.958 117.601 6
1 1 -6 416.728 106.311 2
1 -1 -6 489.353 91.3704 7
-1 -1 -5 3094.64 261.204 7
1 1 -5 2429.87 155.076 5
-1 1 -5 3047.8 314.365 6
1 1 -5 2343.37 195.279 2
1 1 -5 2649.44 200.078 1
1 -1 -5 2546.69 219.079 3
-1 1 -5 2679.87 229.891 2
1 -1 -5 2984.28 163.798 5
1 -1 -5 2833.59 136.366 6
-1 1 -5 2316.39 183.398 1
1 -1 -5 3141.28 220.749 7
1 1 -4 5571.82 273.906 2
-1 1 -4 5461.15 329.586 3
-1 1 -4 5293.6 297.292 6
-1 -1 -4 5574.71 240.503 5
1 -1 -4 5156.17 261.952 7
1 1 -4 5500.62 266.67 1
1 1 -4 5325.16 229.843 5
-1 -1 -4 5753.92 320.905 7
1 -1 -4 5107.55 145.274 6
1 -1 -4 5370.69 220.745 5
-1 -1 -4 5465.69 315.094 1
-1 1 -4 5357.22 255.191 1
-1 1 -4 5858.15 322.332 2
1 -1 -4 5704.32 296.885 1
1 -1 -4 5399.06 304.152 3
1 1 -3 20043.1 492.081 2
1 1 -3 20461 476.089 5
-1 1 -3 21028.4 622.712 3
-1 1 -3 21118.3 469.822 1
-1 -1 -3 20233.9 598.335 7
-1 -1 -3 20782.9 481.034 5
1 -1 -3 21247.3 463.739 5
1 -1 -3 20027.8 560.689 3
-1 1 -3 20579.5 578.899 6
-1 -1 -3 20921.6 589.754 1
-1 1 -3 20591.2 597.83 2
-1 -1 -3 20825.1 456.59 3
1 -1 -3 19234.2 490.226 7
1 1 -3 20336.2 489.396 1
1 -1 -3 21385.2 543.927 1
-1 -1 -2 10689.5 396.108 7
1 -1 -2 10846.2 345.267 7
1 1 -2 10683.5 314.021 2
1 1 -2 10678.3 331.796 5
-1 1 -2 10573.8 401.381 2
-1 1 -2 10528.2 399.539 3
-1 -1 -2 11179.7 266.973 3
-1 -1 -2 11059.3 332.104 5
1 -1 -2 11130 381.943 3
1 -1 -2 11754.3 347.588 1
1 1 -2 11279.8 432.871 4
1 -1 -2 11261.8 321.542 5
-1 1 -2 10624.8 358.213 6
-1 1 -1 338958 3817.82 2
-1 -1 -1 341477 3813.79 4
-1 -1 0 127519 1568.21 5
1 1 0 126996 1697.1 7
-1 -1 0 127470 1712.98 7
1 -1 0 131684 1536.2 5
1 1 0 127789 1579.9 5
-1 1 0 128745 1670.39 3
-1 1 0 118593 1708.17 2
1 -1 0 128402 1635.73 3
1 1 0 126488 1770.2 4
-1 -1 0 127434 1742.83 4
1 1 0 127448 1433.68 2
1 -1 0 126100 1407.38 1
-1 -1 1 379063 4195.01 4
1 1 2 11316.2 335.974 5
1 -1 2 11205 390.008 3
-1 -1 2 10577.9 326.597 2
-1 -1 2 10450.5 327.835 5
-1 -1 2 10339.8 409.143 4
1 -1 2 10770 259.706 1
1 -1 2 10264.7 407.045 2
1 -1 2 10343.3 307.592 5
1 1 2 10918.2 370.611 1
-1 1 2 10436.3 352.32 3
1 1 2 10997.2 395.841 7
1 1 2 10871.2 418.86 4
-1 1 2 11448.8 355.847 1
-1 1 2 10889.1 335.633 7
-1 1 3 21683 560.066 1
-1 -1 3 19876.5 508.309 2
1 1 3 20091 463.69 5
-1 1 3 20792.5 483.665 7
1 1 3 20408.3 557.893 1
-1 -1 3 18784.2 580.324 4
1 -1 3 20198.8 609.619 2
1 -1 3 20206.1 452.277 5
1 1 3 20808.3 575.057 7
-1 -1 3 20804.8 487.306 5
1 -1 3 20808.7 430.923 1
1 -1 4 5255.23 217.913 5
-1 -1 4 5451.43 330.46 4
1 1 4 5156.68 252.766 6
1 1 4 5217.79 222.642 5
1 -1 4 5508.96 241.584 1
-1 1 4 5355.91 295 1
1 1 4 5361.99 298.801 1
1 1 4 5592.45 294.719 7
-1 -1 4 5594.78 288.887 1
1 -1 4 5261.05 320.077 2
-1 -1 4 6129.06 257.956 5
-1 1 4 5295.94 239.529 7
-1 -1 4 5437.82 279.424 2
-1 -1 5 2564.29 212.928 1
-1 1 5 2834.76 230.653 1
-1 -1 5 2791.21 179.221 5
1 1 5 2576.65 199.358 2
1 -1 5 2749.26 189.542 1
1 1 5 2802.03 202.866 6
1 1 5 2421.57 149.141 5
1 -1 5 2544.41 151.798 5
1 1 5 2766.78 234.981 1
1 -1 6 497.312 69.577 5
1 1 6 499.647 121.41 1
-1 -1 6 320.578 86.0285 1
1 1 6 473.754 66.63 5
-1 1 6 465.642 109.331 1
1 -1 6 593.198 98.5733 1
1 1 6 471.161 101.985 6
-1 -1 7 5679.83 361.272 1
1 1 7 5850.62 227.225 5
1 -1 7 5985.38 238.149 5
1 1 7 5737.44 335.603 6
-1 1 7 6054.86 392.169 1
1 -1 7 5966.68 334.476 1
1 1 7 5857.48 382.471 1
1 1 8 3743.67 168.383 5
1 1 8 3656.59 326.572 1
1 -1 8 3404.27 273.612 1
-1 1 8 3351.97 309.533 1
-1 -1 8 3160.85 297.256 1
1 -1 8 3547.1 179.483 5
1 1 9 -73.7418 85.1569 1
1 -1 9 87.0755 29.9006 5
1 1 9 18.8574 20.4641 5
-1 1 9 9.9946 66.0199 1
-1 -1 9 -12.7577 51.0622 1
1 -1 9 35.9373 55.6351 1
-1 1 10 1692.11 255.207 1
-1 -1 10 1387.28 218.36 1
1 1 10 1375.13 223.328 1
1 -1 10 1092.32 87.1895 5
1 -1 10 1397.34 207.995 1
1 1 11 513.407 153.656 1
1 -1 11 273.582 88.754 1
-1 1 11 256.512 110.709 1
-1 -1 11 395.855 122.062 1
1 1 12 2873.79 358.562 1
-1 -1 12 2735.25 335.14 1
1 -1 12 2749.43 328.628 1
-1 1 12 2721.71 351.764 1
-1 -1 13 2700.03 348.208 1
1 1 13 2503.96 348.278 1
1 -1 13 2698.83 344.674 1
-1 1 13 2927.8 391.58 1
1 -1 14 993.85 233.254 1
-1 1 14 780.037 212.358 1
1 1 14 1172.12 258.029 1
-1 -1 14 735.496 220.721 1
-1 -1 15 870.813 246.905 1
1 -1 15 1134.47 248.393 1
1 1 15 1153.56 261.728 1
-1 1 15 768.999 239.996 1
1 -1 16 10.6514 82.2786 1
-1 1 16 299.944 198.398 1
1 1 16 84.3419 157.354 1
-1 -1 16 -74.4447 122.409 1
-1 -1 17 82.1676 109.595 1
1 1 17 378.371 183.108 1
-1 1 17 114.001 150.895 1
1 -1 17 269.361 194.105 1
-1 -1 18 263.019 179.251 1
1 -1 18 98.8153 143.436 1
1 2 -18 318.084 173.319 6
-1 -2 -18 337.561 203.905 7
1 -2 -18 446.205 219.009 3
1 2 -17 -112.958 154.22 6
-1 -2 -17 23.4321 157.186 7
-1 2 -17 158.163 162.567 6
1 -2 -17 196.859 100.528 7
1 -2 -17 300.699 173.633 3
1 -2 -16 1055.64 307.877 3
1 -2 -16 951.77 258.61 7
1 2 -16 830.326 240.983 6
-1 -2 -16 1835.3 387.094 7
-1 2 -16 1440.2 324.643 2
-1 2 -16 1383.37 323.511 6
1 -2 -15 66.4188 111.633 7
1 2 -15 196.626 177.683 6
1 -2 -15 70.9673 125.837 3
-1 -2 -15 -56.7612 95.1868 7
-1 2 -15 71.6623 107.732 2
-1 2 -15 409.962 199.864 6
1 2 -14 231.434 176.394 6
-1 2 -14 101.82 131.173 2
1 -2 -14 183.304 138.264 7
-1 -2 -14 700.188 258.428 7
-1 2 -14 67.4221 102.414 6
1 -2 -14 314.843 156.418 3
-1 2 -13 1257.74 258.949 6
1 2 -13 1620.92 306.808 2
1 2 -13 1329.48 306.136 6
-1 -2 -13 1781.95 331.276 7
1 -2 -13 1482.53 284.049 3
-1 2 -13 1726.41 312.554 2
1 -2 -13 1492.83 287.771 7
-1 2 -12 8678.73 672.428 6
-1 2 -12 8798.43 646.193 2
1 2 -12 9350.29 648.732 2
1 -2 -12 8531.1 619.868 7
1 2 -12 8111.09 622.812 6
-1 -2 -12 8310.18 650.974 7
1 -2 -12 8564.74 632.446 3
1 -2 -11 7671.68 567.689 7
1 -2 -11 6874.35 537.581 3
-1 -2 -11 7109.16 574.174 7
-1 2 -11 7749.41 572.962 2
-1 2 -11 7575.08 596.972 6
1 2 -11 7344.07 553.305 2
1 2 -11 7001.78 569.963 6
1 -2 -11 7431.76 340.495 5
-1 2 -10 8076.81 591.421 6
1 -2 -10 8476.02 563.109 3
1 -2 -10 8835.62 586.284 7
-1 -2 -10 9408.24 646.221 7
-1 2 -10 8483.16 579.34 2
1 -2 -10 9147.49 394.233 5
1 2 -10 9140.54 586.45 2
-1 2 -9 11806 647.423 2
1 -2 -9 10819.3 621.05 7
-1 -2 -9 11241.1 668.674 7
1 -2 -9 11465.3 453.306 5
1 -2 -9 10529.5 604.202 3
1 2 -9 12073.3 630.954 2
-1 2 -9 10217 641.059 6
-1 2 -8 2386.13 285.605 2
-1 2 -8 2095.7 281.77 6
1 -2 -8 2437.08 283.529 7
-1 -2 -8 2869.71 325.622 7
1 2 -8 2168.91 256.659 2
1 -2 -8 2199.8 194.29 5
1 -2 -8 2033.01 252.429 3
-1 -2 -8 2183.98 200.201 5
-1 -2 -7 6936.69 489.785 7
1 -2 -7 7956.22 375.44 5
-1 2 -7 7447.04 490.705 6
1 2 -7 7794.31 454.378 2
1 -2 -7 7390.52 474.048 7
-1 -2 -7 7681.17 377.993 5
-1 2 -7 8245.84 499.907 2
1 -2 -7 7058.98 441.657 3
-1 2 -7 6480.24 337.561 1
-1 -2 -6 1070.31 187.674 7
-1 2 -6 914.003 113.433 1
-1 2 -6 1015.22 179.092 2
1 -2 -6 938.984 125.753 5
-1 2 -6 781.243 170.085 6
1 -2 -6 907.404 156.376 7
1 2 -6 1133.94 135.741 1
-1 -2 -6 1123.05 141.599 5
1 2 -6 1062.81 160.44 2
1 -2 -6 1080.66 168.164 3
1 -2 -5 816.958 138.403 3
-1 -2 -5 818.202 123.064 5
-1 2 -5 934.905 170.558 6
-1 2 -5 845.803 100.212 1
1 -2 -5 964.165 160.803 7
-1 -2 -5 874.095 168.643 7
-1 2 -5 752.745 160.38 2
1 2 -5 783.064 141.352 2
1 -2 -5 982.254 132.426 5
1 2 -5 875.125 111.079 1
1 2 -4 2861.72 177.182 1
-1 -2 -4 2935.17 230.006 5
1 -2 -4 2675.26 221.465 3
1 -2 -4 3335.09 276.853 7
-1 -2 -4 2992.75 278.974 7
-1 -2 -4 2963.75 155.885 3
1 -2 -4 2847.13 217.467 5
-1 2 -4 2811.01 261.345 6
1 2 -4 2944.03 242.794 2
-1 2 -4 3107.49 288.577 2
-1 2 -3 2862.43 255.373 3
-1 -2 -3 3119.08 286.239 7
1 -2 -3 3900.69 312.207 7
1 -2 -3 3358.43 230.585 3
1 2 -3 2986.15 236.63 2
-1 -2 -3 3470.43 263.129 1
1 2 -3 3187.47 179.891 1
1 -2 -3 3391.32 219.866 1
-1 2 -3 3248.2 287.195 2
-1 -2 -3 3628.87 257.207 5
1 -2 -3 3435.16 240.091 5
-1 2 -3 3045.28 270.388 6
1 2 -2 6002.45 393.02 4
-1 -2 -2 5698.73 317.99 5
-1 -2 -2 5168.88 364.92 7
1 2 -2 5510.41 310.031 2
1 -2 -2 5252.46 295.608 5
-1 2 -2 5662.26 370.94 2
1 -2 -2 5093.29 337.281 7
-1 2 -2 5335.97 324.16 3
1 -2 -2 5282.28 274.478 3
1 -2 -2 5589.29 247.707 1
-1 -2 -1 3384.49 282.497 4
-1 -2 -1 3763.09 262.691 5
-1 2 -1 3812.73 216.223 4
1 -2 -1 3686.08 225.993 3
-1 2 -1 3507.17 248.691 3
-1 -2 -1 4177.74 338.436 7
1 2 -1 3223.65 231.965 2
-1 2 -1 3141.08 271.006 2
1 2 -1 3693.36 303.554 4
1 -2 -1 3580.51 170.874 1
1 -2 -1 4872.4 300.527 5
1 2 0 -5.21225 39.6179 2
-1 -2 0 0.71018 54.6245 4
-1 2 0 4.38328 35.1596 3
1 -2 0 33.9101 40.226 4
-1 2 0 16.2006 57.5611 2
1 -2 0 -48.6851 54.3854 5
1 -2 0 43.3782 22.0244 1
-1 -2 0 12.9417 50.5453 5
-1 2 0 66.8333 49.5651 7
1 2 0 44.2869 61.3931 4
1 2 0 33.5702 20.3962 3
1 -2 0 1.72131 34.9219 3
-1 2 0 10.935 44.1984 4
1 -2 1 3885.51 216.785 4
-1 2 1 4227.97 315.467 7
-1 -2 1 3490.72 251.192 5
-1 -2 1 3763.33 260.503 2
1 2 1 3492.69 243.642 2
-1 2 1 3886.27 257.894 3
-1 2 1 3511.69 184.334 1
1 2 1 3449.24 204.683 1
1 -2 1 3496.55 231.553 3
1 -2 1 4346.45 270.051 5
-1 -2 1 3393.04 294.65 4
-1 2 1 3476.08 218.464 4
1 2 1 3705.86 298.1 4
1 2 2 5265.92 368.194 4
-1 -2 2 5388.09 317.716 2
1 2 2 5239.51 272.512 1
1 -2 2 5569.13 303.195 5
-1 2 2 5400.17 295.55 4
1 -2 2 5712.6 284.59 4
-1 -2 2 5767.29 390.901 4
-1 2 2 5574.11 281.511 3
-1 2 2 5528.5 348.243 7
-1 2 2 5750.62 270.916 1
1 -2 2 5711.22 314.26 3
-1 -2 2 5212.99 304.99 5
1 -2 3 3001.96 219.85 5
-1 2 3 3358.19 212.524 3
1 2 3 3566.82 239.351 1
1 -2 3 2751.5 103.822 1
1 -2 3 2873.21 211.233 4
-1 2 3 5390.12 389.201 7
-1 -2 3 3091.67 286.919 4
-1 -2 3 3344.09 250.13 5
-1 2 3 3596.87 240.582 1
-1 -2 3 3049.5 249.288 2
1 -2 4 3095.29 234.547 4
-1 -2 4 2643.96 262.903 4
-1 2 4 2656.69 220.62 1
1 -2 4 2958.26 141.217 1
1 2 4 2746.17 224.368 1
-1 -2 4 2934.95 227.125 5
1 -2 4 2874.51 217.745 5
1 -2 5 827.953 94.1943 1
1 -2 5 860.716 122.871 5
-1 -2 5 755.216 116.62 5
-1 -2 5 1069.88 186.667 4
-1 2 5 1018.72 155.37 1
1 -2 5 898.672 156.053 4
1 2 5 879.342 142.599 1
1 -2 6 1059.6 138.448 5
1 2 6 933.798 119.097 6
1 -2 6 946.619 114.024 1
1 2 6 874.934 149.767 1
-1 2 6 970.577 161.846 1
-1 -2 6 918.945 174.216 4
-1 -2 6 1009.4 139.027 5
1 2 7 8092.15 360.599 6
-1 -2 7 7107.31 504.239 4
-1 -2 7 7667.97 384.946 5
-1 2 7 7291.45 450.06 1
-1 -2 7 7624.01 425.383 1
1 -2 7 7336.84 343.455 1
1 -2 7 7979.9 381.141 5
1 2 7 8345.07 476.408 1
-1 -2 8 2376.04 312.853 4
-1 2 8 2374.95 266.641 1
-1 -2 8 2304.99 217.468 5
-1 -2 8 2164.09 233.41 1
1 2 8 2246.22 199.386 6
1 -2 8 2038.99 200.435 1
1 -2 8 2357 206.785 5
1 2 8 2654.67 285.119 1
1 2 9 11040.6 612.817 1
-1 -2 9 12149 511.426 5
-1 -2 9 11995.4 727.833 4
-1 2 9 10824.4 615.813 1
-1 -2 9 10642.3 558.822 1
1 -2 9 11097.2 506.77 1
1 -2 9 11481.4 463.139 5
1 -2 10 8650.51 405.336 5
1 -2 10 8119.06 465.953 1
1 2 10 9925.72 615.967 1
-1 -2 10 9066.71 543.685 1
-1 -2 10 9361.1 694.727 4
-1 2 10 8391.68 576.1 1
-1 2 11 7622.95 584.517 1
1 2 11 7994.62 580.807 1
1 -2 11 7506.51 359.753 5
-1 -2 11 7124.49 521.036 1
1 -2 11 7182.27 467.335 1
-1 2 12 8848.08 658.372 1
-1 -2 12 7855.86 578.173 1
1 -2 12 8482.92 540.94 1
1 2 12 9254.62 658.395 1
-1 -2 13 1180.36 256.179 1
1 2 13 1831.91 315.658 1
-1 2 13 1348.62 292.802 1
1 -2 13 1429.49 236.581 1
-1 -2 14 136.319 114.218 1
-1 2 14 79.896 128.211 1
1 -2 14 33.173 88.4118 1
1 2 14 271.455 152.561 1
-1 -2 15 67.3439 76.0511 1
-1 2 15 59.0496 138.605 1
1 -2 15 46.8215 76.1701 1
1 2 15 233.891 176.279 1
1 -2 16 873.925 217.7 1
-1 2 16 1333.64 348.457 1
-1 -2 16 859.067 229.551 1
1 2 16 1326.87 306.255 1
1 -2 17 264.99 152.322 1
-1 -2 17 -26.5729 139.363 1
-1 -3 -17 -206.4 179.626 7
-1 3 -16 227.19 180.711 6
1 3 -16 94.5333 170.471 6
-1 -3 -16 -71.9816 158.044 7
1 -3 -15 54.9136 111.84 7
-1 3 -15 112.931 96.5512 2
1 3 -15 156.917 140.774 6
-1 3 -15 309.958 175.107 6
1 3 -15 186.615 159.335 2
-1 -3 -15 385.629 199.033 7
-1 -3 -14 254.428 138.19 7
1 3 -14 57.9318 125.794 2
1 3 -14 316.081 210.816 6
1 -3 -14 16.2033 119.812 7
-1 3 -14 198.881 128.329 2
-1 3 -14 77.3875 112.271 6
1 -3 -13 832.987 233.315 3
1 3 -13 675.759 248.475 6
1 -3 -13 501.681 202.424 7
-1 -3 -13 393.006 186.283 7
-1 3 -13 679.453 221.705 2
-1 3 -13 419.809 163.739 6
1 3 -13 477.679 184.643 2
1 -3 -12 319.502 159.344 7
-1 3 -12 484.092 167.593 2
-1 -3 -12 245.868 158.737 7
1 3 -12 389.918 212.871 6
1 -3 -12 364.305 140.651 3
-1 -3 -12 54.6452 65.6084 3
-1 3 -12 209.913 161.175 6
1 3 -12 397.5 156.321 2
-1 -3 -11 2043.07 350.502 7
1 3 -11 2453.59 337.886 2
1 -3 -11 2213.44 321.296 3
-1 3 -11 2576.98 362.459 2
-1 -3 -11 2159.08 279.117 3
-1 3 -11 2095.76 353.861 6
1 -3 -11 2153.8 356.073 7
1 -3 -10 7613.02 616.756 7
-1 -3 -10 7644.67 493.135 3
1 -3 -10 7221.32 444.407 5
-1 -3 -10 7423.21 474.249 5
-1 3 -10 6055.44 572.702 6
1 -3 -10 7262.67 558.757 3
-1 3 -10 7946.62 602.251 2
-1 -3 -10 6834.67 608.958 7
1 3 -10 7556.45 563.559 2
1 -3 -9 10178.1 617.139 3
1 -3 -9 9896.39 676.592 7
1 -3 -9 10275.7 534.901 5
-1 -3 -9 10469.5 538.232 3
-1 -3 -9 11584.6 585.894 5
1 3 -9 11706.1 671.839 2
-1 3 -9 11111.1 693.133 2
-1 3 -9 11098.9 729.877 6
-1 -3 -9 10558.3 748.227 7
1 3 -8 7380.51 508.163 2
-1 -3 -8 7359.15 467.514 5
1 -3 -8 6499.66 536.015 7
1 -3 -8 6983.14 481.56 3
-1 -3 -8 6586.36 554.32 7
1 -3 -8 6782.39 426.963 5
-1 -3 -8 6723.43 391.222 3
-1 3 -8 6968.39 547.305 6
-1 3 -8 6876.61 529.064 2
-1 3 -7 2420.94 304.148 2
1 -3 -7 2301.22 250.214 5
1 -3 -7 2423.41 314.525 7
-1 -3 -7 1813.9 287.875 7
-1 -3 -7 2104.11 179.367 3
-1 -3 -7 2017.22 189.983 3
-1 -3 -7 2174.84 254.46 5
1 3 -7 2166.36 179.738 1
1 3 -7 2191.55 268.76 2
1 -3 -7 2293.15 254.834 3
-1 3 -7 1955.77 294.603 6
-1 3 -6 -7.73928 69.085 2
-1 -3 -6 53.4685 40.1268 3
-1 3 -6 7.99478 104.345 6
1 3 -6 -24.2289 53.7715 2
1 -3 -6 60.9793 59.0493 3
-1 -3 -6 64.3954 66.2002 7
1 -3 -6 156.232 66.8727 5
-1 -3 -6 62.6254 66.6837 5
1 -3 -6 49.5288 69.9077 7
-1 -3 -6 16.9864 28.381 3
1 3 -6 60.9888 34.1262 1
-1 -3 -5 1862.74 278.821 7
-1 -3 -5 1343.52 98.7505 3
-1 3 -5 2067.7 296.019 6
1 3 -5 1834.82 137.084 1
1 -3 -5 1916.8 264.436 7
-1 -3 -5 2068.02 244.823 5
1 3 -5 1810.45 244.704 2
-1 -3 -5 1514.27 103.221 3
1 -3 -5 1629.41 187.09 3
-1 3 -5 1977.72 288.497 2
1 -3 -5 2036.37 247.678 5
-1 -3 -4 858.257 189.676 7
-1 3 -4 1007.76 210.505 6
1 3 -4 838.65 172.55 2
1 -3 -4 798.498 129.031 3
1 -3 -4 830.22 192.201 7
-1 -3 -4 1273.88 216.568 5
1 3 -4 684.007 79.3267 1
-1 3 -4 957.702 200.873 2
1 -3 -4 831.984 162.845 5
1 -3 -3 7264.31 350.489 3
1 -3 -3 6828.19 342.847 1
1 3 -3 6343.45 357.133 3
1 3 -3 7146.35 447.142 2
1 3 -3 6810.95 244.131 1
-1 -3 -3 7503.6 537.08 7
-1 -3 -3 7919.57 472.315 5
1 -3 -3 7546.87 453.046 5
-1 3 -3 7148.08 496.818 2
1 -3 -2 278.549 81.7771 5
-1 -3 -2 153.707 105.654 7
1 -3 -2 243.044 71.0388 1
-1 -3 -2 191.309 80.6272 5
-1 3 -2 -19.4531 70.0015 2
1 -3 -2 63.9266 42.0146 3
-1 3 -2 178.423 74.602 4
1 3 -2 233.353 108.318 2
1 3 -2 187.151 69.7324 3
-1 3 -1 161.429 84.8082 3
1 -3 -1 208.826 91.99 5
-1 -3 -1 140.952 74.7616 4
1 3 -1 180.528 62.9366 2
1 -3 -1 186.677 48.9462 1
1 -3 -1 91.7959 49.8782 3
-1 3 -1 279.982 127.352 2
1 3 -1 165.035 42.3717 3
-1 -3 -1 79.8007 44.4416 5
-1 3 -1 101.693 49.6922 4
1 3 -1 193.787 47.3847 1
-1 3 0 5494.48 347.887 4
1 3 0 5280.62 236.529 1
-1 -3 0 5551.24 385.413 5
1 -3 0 5856.21 342.5 4
1 3 0 5021.68 358.746 2
-1 3 0 5050.4 409.698 2
1 -3 0 5520.19 301.169 3
-1 3 0 5523.48 351.59 3
1 -3 0 5554.21 203.064 1
1 3 0 4766.36 205.295 3
-1 -3 0 5690.75 420.8 4
1 -3 0 5135.7 361.727 5
-1 3 1 167.801 65.0448 4
1 -3 1 193.698 67.4696 3
-1 3 1 -4.23559 72.07 2
1 3 1 185.833 80.6147 2
1 3 1 224.845 59.6591 1
-1 -3 1 173.357 88.2706 5
1 -3 1 129.675 67.8744 5
-1 -3 1 268.665 105.314 4
1 -3 1 104.112 55.3052 4
-1 3 1 136.927 44.1208 1
-1 3 1 129.979 53.9196 3
-1 3 2 101.811 62.8054 1
1 -3 2 172.582 79.7763 5
-1 3 2 168.112 83.2276 4
-1 -3 2 88.3375 58.7923 4
1 3 2 114.262 72.4923 2
-1 -3 2 149.105 81.4809 5
-1 3 2 243.187 70.7254 3
1 -3 2 145.793 83.1023 4
1 3 2 131.388 44.3324 1
1 -3 3 7468.21 438.993 5
1 3 3 6925.93 353.45 1
-1 -3 3 8173.42 476.646 5
-1 3 3 6879.75 361.349 1
-1 3 3 7264.47 325.041 3
1 -3 3 7037.18 415.806 4
-1 -3 3 6821.54 503.96 4
-1 -3 4 692.643 190.481 4
1 3 4 768.954 134.761 1
-1 3 4 726.124 135.516 1
1 -3 4 1148.46 186.477 4
-1 -3 4 974.225 194.537 5
1 -3 4 682.092 147.858 5
1 -3 5 1963.01 230.553 5
-1 -3 5 2112.2 249.804 5
1 -3 5 2073.44 249.234 4
-1 3 5 1999.12 229.15 1
1 3 5 1877.78 211.262 1
-1 -3 5 1814.38 272.011 4
-1 -3 6 83.8507 57.7619 5
-1 -3 6 92.3349 87.9963 4
-1 3 6 21.577 65.8696 1
1 3 6 -53.078 44.9395 1
1 -3 6 19.1261 53.0452 4
1 -3 6 -1.69281 20.5058 1
1 -3 6 32.0262 52.1665 5
-1 3 7 2089.01 251.507 1
-1 -3 7 1646.69 263.566 4
1 3 7 1744.07 168.476 6
1 -3 7 2015.86 268.371 4
1 -3 7 2294.64 177.562 1
1 -3 7 2297.32 254.604 5
1 3 7 2134.68 252.802 1
-1 -3 7 2638.31 276.529 5
1 -3 8 6734.94 345.063 1
1 -3 8 7060.09 440.995 5
-1 -3 8 6853.42 565.542 4
-1 3 8 6478.64 469.714 1
-1 -3 8 7598.97 471.443 5
1 -3 8 6733.6 513.262 4
1 3 8 6930.63 484.789 1
-1 3 9 10340.8 626.717 1
1 -3 9 11016.4 694.407 4
1 -3 9 11082.6 564.121 5
1 -3 9 10531.7 478.774 1
-1 -3 9 11568.6 593.481 5
-1 -3 9 10259.2 727.743 4
1 3 9 10750 636.708 1
-1 -3 10 7854.37 498.267 5
1 -3 10 7598.92 464.509 5
1 -3 10 6815.39 582.779 4
1 -3 10 6776.82 412.882 1
-1 3 10 6334.1 515.759 1
1 3 10 7793.24 569.093 1
-1 -3 10 6878.63 628.029 4
1 3 11 2610.68 345.116 1
1 -3 11 2528.1 267.027 5
-1 -3 11 2630.22 294.34 5
1 -3 11 3120.53 422.166 4
-1 3 11 2163.17 326.256 1
1 -3 11 2212.87 255.234 1
-1 -3 11 2705.1 408.47 4
1 3 12 416.474 164.415 1
-1 -3 12 470.577 202.704 4
-1 3 12 81.3169 112.521 1
1 -3 12 313.768 160.41 4
-1 3 13 579.149 198.062 1
1 3 13 593.73 203.564 1
1 -3 13 742.75 238.609 4
-1 -3 13 170.775 121.943 4
-1 3 14 194.984 149.567 1
-1 -3 14 301.206 174.188 4
1 3 14 126.903 158.243 1
1 -3 14 108.834 150.85 4
-1 3 15 106.227 140.626 1
1 3 15 137.775 128.48 1
-1 -3 15 116.805 130.175 4
1 -3 15 24.6521 97.8774 4
-1 3 16 -140.478 92.4619 1
-1 -3 16 354.117 214.452 4
1 -3 16 265.593 165.1 4
1 -3 17 157.451 135.46 4
-1 -4 -15 470.485 215.581 7
-1 4 -14 1254.05 352.386 6
1 4 -14 1093.04 312.93 6
-1 -4 -14 1267.99 340.056 7
1 -4 -14 1331.94 327.089 7
1 4 -14 1661.3 360.032 2
-1 4 -14 1535.3 330.436 2
1 -4 -13 41.197 177.747 7
-1 -4 -13 335.618 203.651 7
-1 4 -13 60.3247 101.624 2
-1 4 -13 -120.042 178.413 6
1 4 -13 250.021 144.199 2
1 4 -13 198.342 203.106 6
1 4 -12 1884.77 381.324 6
-1 4 -12 2074.04 382.953 2
1 -4 -12 2892.54 469.979 7
-1 4 -12 2006.89 380.141 6
-1 -4 -12 1932.15 396.404 7
1 4 -12 2369.19 377.806 2
-1 4 -11 127.04 123.748 6
-1 4 -11 146.415 133.181 2
1 4 -11 330.932 198.544 6
-1 -4 -11 227.196 135.976 7
1 4 -11 49.7747 98.3705 2
1 -4 -11 195.12 153.783 7
-1 -4 -10 1713.85 380.393 7
1 -4 -10 1830.4 359.721 7
-1 4 -10 1626.42 334.308 6
1 4 -10 2185.17 333.424 2
-1 4 -10 2043.61 339.585 2
-1 -4 -10 1777.24 276.685 5
1 -4 -10 1914.97 269.352 5
-1 -4 -9 741.069 180.536 5
-1 4 -9 739.75 267.589 6
1 -4 -9 866.187 224.113 7
1 4 -9 1048.05 230.456 2
-1 4 -9 628.757 202.84 2
1 -4 -9 774.822 182.919 5
-1 -4 -9 741.45 262.248 7
1 4 -8 312.284 157 2
1 -4 -8 178.206 176.208 7
-1 4 -8 57.8579 115.686 6
1 -4 -8 -42.7331 98.8768 5
-1 -4 -8 -30.1155 95.0995 5
-1 -4 -8 74.3107 185.354 7
-1 4 -8 79.1012 126.203 2
1 -4 -7 185.956 124.996 7
1 4 -7 188.604 132.892 2
-1 4 -7 421.709 198.741 6
-1 -4 -7 14.9043 81.873 7
-1 -4 -7 5.74024 91.4999 5
1 -4 -7 109.568 78.402 5
-1 4 -7 66.0733 121.676 2
-1 -4 -6 1004.44 211.574 5
1 4 -6 1310.07 238.895 2
1 -4 -6 885.332 202.791 7
-1 -4 -6 672.269 195.325 7
-1 4 -6 1489.6 273.002 6
1 -4 -6 1249.34 230.416 5
1 -4 -6 1314.83 168.017 3
-1 4 -6 1326.33 259.433 2
-1 4 -5 282.039 140.998 2
-1 -4 -5 37.4784 68.1406 5
-1 -4 -5 104.496 131.825 7
1 -4 -5 17.5792 61.8415 5
1 -4 -5 34.5099 81.8656 7
1 4 -5 55.737 67.9805 2
-1 4 -5 368.273 172.65 6
1 -4 -5 -50.5057 30.4904 3
-1 4 -4 2206.06 306.991 6
1 4 -4 1893 262.034 2
-1 4 -4 1844.09 287.617 2
1 -4 -4 1676.58 247.331 5
1 -4 -4 1735.35 166.626 3
-1 -4 -4 1740.53 257.606 5
-1 -4 -4 2239.79 341.623 7
-1 -4 -3 129.421 107.756 5
1 4 -3 151.367 112.747 2
1 -4 -3 53.9669 39.5418 3
-1 -4 -3 62.4595 138.251 7
1 -4 -3 164.359 107.93 5
-1 4 -3 39.3596 121.184 2
1 -4 -2 546.438 169.426 5
1 4 -2 475.671 134.789 2
1 4 -2 535.435 111.742 3
-1 4 -2 357.658 138.216 2
-1 -4 -2 357.598 138.812 5
1 -4 -2 436.128 86.691 3
1 -4 -2 330.246 91.793 1
1 4 -2 356.112 38.2537 1
-1 4 -1 2913.62 353.507 2
-1 -4 -1 3405.14 351.257 5
1 -4 -1 3104.85 336.823 5
1 4 -1 3039.59 147.014 1
-1 -4 -1 3371.39 376.426 4
1 4 -1 2963.3 211.961 3
1 4 -1 3739.96 366.823 2
-1 4 0 74.2459 99.3429 2
-1 4 0 47.3819 59.4742 3
1 4 0 -41.2411 84.5076 2
1 -4 0 -91.2444 89.9053 5
-1 -4 0 -34.6725 78.5546 4
1 4 0 144.303 44.1001 1
1 4 0 66.2713 24.4747 3
-1 -4 0 262.832 178.975 5
1 4 0 21.0189 19.9012 3
-1 4 1 3012.39 373.556 2
1 -4 1 2903.97 323.723 5
-1 -4 1 3504.7 358.78 5
1 4 1 3021.35 198.519 1
1 -4 1 3079.41 293.141 4
-1 -4 1 3036.27 348.211 4
-1 4 1 2779.44 190.622 1
-1 4 1 3285.72 272.517 3
1 4 1 2933.19 335.054 2
-1 4 2 372.127 89.4635 1
-1 -4 2 635.49 168.426 5
1 4 2 373.394 77.3549 1
1 -4 2 308.74 128.194 5
1 4 2 573.056 161.159 2
1 -4 2 655.419 147.312 4
-1 -4 2 410.885 136.612 4
-1 4 2 547.749 185.521 2
1 4 3 91.928 69.9131 1
1 -4 3 98.3683 82.9475 4
-1 4 3 115.83 75.8412 1
-1 -4 3 140.091 103.679 5
-1 4 3 153.148 135.367 2
-1 -4 3 209.735 110.67 4
1 -4 3 62.3341 66.8912 5
1 4 3 127.315 111.75 2
1 -4 4 2017.48 259.978 4
-1 -4 4 1972.09 311.226 4
1 -4 4 2122.86 271.486 5
-1 -4 4 1666.31 251.132 5
-1 4 4 1798.27 146.643 6
-1 4 4 1682.1 209.524 1
1 4 4 1594.49 187.041 1
-1 -4 5 45.1906 93.366 4
-1 4 5 48.2508 59.6986 1
1 -4 5 -87.1759 75.6733 4
-1 -4 5 97.2815 87.2015 5
1 -4 5 14.3001 64.3643 5
1 4 5 23.7692 65.0975 1
-1 -4 6 1248.47 260.403 4
1 -4 6 1279.33 209.835 5
1 -4 6 1276.66 229.285 4
1 4 6 1134.62 183.641 1
-1 -4 6 1267.51 224.921 5
-1 4 6 909.463 180.761 1
-1 4 7 100.824 88.4713 1
-1 -4 7 276.861 107.921 5
1 4 7 205.799 88.2539 1
1 -4 7 258.574 117.169 5
-1 -4 7 121.275 82.4591 4
1 -4 7 115.049 116.513 4
-1 -4 8 -12.987 122.433 4
1 4 8 -40.4688 71.7594 1
1 -4 8 125.486 62.8365 5
-1 4 8 16.6966 77.9234 1
-1 -4 8 99.3612 99.0484 5
1 -4 8 91.6937 107.317 4
1 4 9 545.687 148.837 1
-1 -4 9 789.299 177.888 5
1 -4 9 464.216 154.124 5
1 -4 9 461.582 189.384 4
-1 4 9 689.635 183.743 1
-1 -4 9 698.88 226.793 4
1 -4 10 1822.94 333.736 4
1 -4 10 2023.27 292.128 5
-1 -4 10 1637 270.446 5
1 4 10 1750.86 289.184 1
-1 4 10 1225.62 241.732 1
-1 -4 10 1979.97 406.993 4
1 -4 11 123.838 148.173 4
1 -4 11 36.7715 71.8383 5
1 4 11 271.287 104.822 1
-1 4 11 55.0039 73.4198 1
-1 -4 11 62.46 93.8474 4
-1 -4 11 124.86 111.501 5
-1 4 12 1664.66 298.369 1
1 4 12 2001.18 337.93 1
-1 -4 12 1573.33 365.394 4
1 -4 12 1721.34 361.343 4
1 -4 13 -116.871 151.703 4
-1 -4 13 247.681 177.695 4
-1 4 13 77.6403 86.5382 1
1 4 13 -34.3919 116.6 1
-1 -4 14 1640.3 428.629 4
-1 4 14 1722.59 352.401 1
1 4 14 1865.72 347.603 1
1 -4 14 1336.74 367.3 4
-1 -4 15 600.671 318.5 4
-1 -5 -13 8.98171 185.021 7
1 5 -13 164.982 137.327 2
1 -5 -12 653.692 264.653 7
-1 -5 -12 331.225 241.657 7
-1 5 -12 434.812 224.996 2
1 5 -12 660.348 238.337 2
-1 -5 -11 484.732 260.736 7
1 -5 -11 433.358 212.067 7
-1 5 -11 407.92 206.622 6
1 5 -11 917.105 340.096 6
1 5 -11 392.176 155.172 2
-1 5 -11 616.446 229.152 2
-1 -5 -10 394.457 187.532 7
1 -5 -10 470.005 170.514 5
-1 5 -10 1120.32 279.425 2
-1 -5 -10 641.969 193.414 5
1 5 -10 800.74 238.702 2
-1 5 -10 611.184 241.521 6
1 -5 -10 983.658 316.087 7
-1 -5 -9 2921.54 395.941 5
-1 5 -9 2606.02 436.664 6
-1 -5 -9 2749.01 487.539 7
1 5 -9 3087.8 408.764 2
-1 5 -9 3748.5 496.829 2
1 -5 -9 2749.12 380.475 5
1 -5 -9 2805.92 458.022 7
-1 -5 -8 -200.028 163.502 7
-1 -5 -8 96.302 109.664 5
1 5 -8 18.947 92.4393 2
1 -5 -8 145.659 118.021 5
-1 5 -8 6.55202 112.546 2
-1 5 -8 268.904 221.918 6
1 -5 -8 38.8602 93.1475 7
1 5 -7 213.978 143.056 2
-1 5 -7 299.68 187.889 6
-1 5 -7 72.5835 157.598 2
-1 -5 -7 97.0742 116.648 7
-1 -5 -7 341.551 158.877 5
1 -5 -7 175.127 75.3895 5
1 5 -6 28.5572 66.2963 2
-1 -5 -6 98.3292 108.529 5
-1 -5 -6 53.9578 131.817 7
-1 5 -6 274.907 156.354 6
1 -5 -6 121.107 119.953 5
-1 5 -6 -52.4088 176.597 2
1 5 -5 1272.74 252.718 2
-1 5 -5 1023.06 232.049 6
-1 5 -5 1059.83 257.092 2
1 -5 -5 995.376 229.469 5
-1 -5 -5 858.897 215.134 5
1 5 -4 146.393 85.0926 2
-1 5 -4 517.48 184.655 6
-1 5 -4 290.864 150.11 2
-1 -5 -4 278.444 136.48 5
1 -5 -4 112.348 93.8301 5
-1 5 -3 -35.7672 105.286 2
1 5 -3 158.785 133.244 2
-1 -5 -3 60.5487 102.973 5
1 -5 -3 167.969 133.42 5
-1 -5 -2 6297.88 557.361 5
1 -5 -2 6501.63 562.122 5
-1 5 -2 5287.99 448.594 6
-1 5 -2 5858.13 566.731 2
1 5 -2 6115.85 523.56 2
-1 5 -1 2072.61 353.462 2
1 -5 -1 2115.88 310.608 5
-1 5 -1 1883.46 258.098 6
1 5 -1 2334.98 329.591 2
-1 -5 -1 2551.37 350.305 5
-1 -5 0 13691.2 812.659 5
-1 5 0 11699.5 603.291 6
-1 5 0 14435.7 916.79 2
1 -5 0 14347.6 819.846 5
1 5 0 14001.7 808.165 2
-1 -5 0 14328.3 841.649 4
1 5 1 2299.53 333.123 2
-1 -5 1 2996.54 384.965 5
-1 -5 1 2003.97 314.209 4
1 -5 1 1831.41 294.651 5
-1 5 1 2598.56 399.885 2
-1 5 1 1882.63 230.073 6
1 -5 2 6055.53 473.147 4
-1 -5 2 6395.51 559.205 5
1 -5 2 6058.05 524.62 5
-1 -5 2 5756.53 535.586 4
1 5 2 6071.61 560.391 2
-1 5 2 7729.7 698.172 2
1 -5 3 121.238 100.067 4
1 -5 3 166.458 110.624 5
-1 -5 3 185.231 108.335 5
1 5 3 -9.54632 77.4048 2
-1 5 3 358.672 183.825 2
-1 -5 3 99.0248 114.02 4
1 -5 4 324.173 142.851 5
1 -5 4 228.079 116.685 4
-1 -5 4 156.03 99.7624 5
1 5 4 430.107 197.061 2
-1 5 4 200.566 121.481 2
-1 -5 4 356.67 179.923 4
1 -5 5 1012.16 228.546 5
-1 5 5 1175.28 286.672 2
-1 -5 5 1454.86 273.228 5
1 5 5 1031.29 249.079 2
-1 -5 5 1032.61 255.811 4
-1 -5 6 -149.156 133.014 5
1 5 6 48.857 130.918 2
-1 -5 6 119.348 139.648 4
1 -5 6 52.4809 98.5468 5
1 5 6 244.111 109.406 1
1 -5 7 216.532 138.094 5
-1 5 7 267.838 97.121 1
1 5 7 220.221 98.3051 1
-1 -5 7 392.1 203.78 4
-1 -5 7 273.725 98.7711 5
-1 -5 8 84.0595 94.1805 5
-1 5 8 -89.6594 67.6917 1
1 -5 8 152.564 82.9314 5
-1 -5 8 81.4596 144.241 4
1 5 8 -6.05449 87.3964 1
-1 5 9 2548 344.271 1
1 -5 9 3117.15 407.134 5
-1 -5 9 3875.48 461.855 5
-1 -5 9 3358.96 509.129 4
1 5 9 2717.04 348.283 1
1 5 10 650.57 189.413 1
-1 5 10 544.135 170.831 1
1 -5 10 691.333 195.849 5
-1 -5 10 1037.86 319.138 4
-1 -5 10 847.413 215.501 5
-1 5 11 260.597 133.495 1
-1 -5 11 354.202 191.224 4
1 5 11 265.477 139.975 1
-1 -5 12 522.471 265.852 4
-1 5 12 182.452 88.8225 1
1 5 12 453.765 167.312 1
1 5 13 9.35937 89.6084 1
-1 5 13 5.52006 80.9445 1
1 6 -10 588.952 224.135 2
-1 6 -9 -164.188 158.079 2
1 6 -9 -100.218 104.643 2
1 -6 -9 68.229 158.352 5
-1 -6 -9 -163.623 163.999 5
-1 6 -9 -181.84 131.079 6
-1 6 -8 19.5405 117.661 2
1 -6 -8 63.5289 129.182 5
-1 -6 -8 197.395 199.86 5
-1 6 -8 150.311 192.307 6
1 6 -8 118.536 154.499 2
-1 6 -7 179.5 139.488 2
-1 6 -7 152.712 182.747 6
1 6 -7 383.28 160.804 2
-1 -6 -7 449.313 202.683 5
1 -6 -7 275.627 169.135 5
-1 6 -6 565.508 239.945 2
-1 -6 -6 423.296 202.51 5
1 -6 -6 838.387 247.143 5
-1 6 -6 800.336 250.353 6
1 6 -6 380.929 180.53 2
1 6 -5 57.8326 110.825 2
-1 6 -5 424.584 188.709 6
-1 -6 -5 -14.5407 119.605 5
1 -6 -5 236.956 160.925 5
-1 6 -5 65.9499 132.947 2
-1 6 -4 1803.15 358.546 2
1 -6 -4 2116.22 367.351 5
1 6 -4 1950.95 345.554 2
-1 -6 -4 2037.03 364.193 5
-1 6 -4 1664.41 323.535 6
-1 6 -3 2009.27 384.96 2
1 6 -3 2148.09 341.209 2
-1 6 -3 1644.42 298.02 6
1 -6 -3 1881.79 351.039 5
-1 -6 -3 1944.35 361.544 5
1 -6 -2 11119.8 829.575 5
1 6 -2 9145.51 715.515 2
-1 6 -2 9848.81 833.074 2
-1 -6 -2 9983.95 793.747 5
1 -6 -1 6957.55 657.969 5
-1 -6 -1 6738.79 650.899 5
1 6 -1 6076.32 579.702 2
-1 6 -1 6261.23 651.137 2
-1 -6 0 12239.9 861.549 5
1 -6 0 11225 826.43 5
1 6 0 10280.7 757.434 2
-1 6 0 11792.6 922.881 2
-1 -6 1 6953.19 651.619 5
1 -6 1 6373.07 623.126 5
1 6 1 6047.49 585.965 2
-1 6 1 7265.55 736.555 2
1 -6 2 10160.9 778.74 5
1 6 2 9506.6 752.736 2
-1 -6 2 8925.69 724.969 4
-1 6 2 10679.9 913.891 2
-1 -6 2 9750.6 783.153 5
-1 -6 3 1806.55 338.907 5
1 -6 3 2217.72 368.712 5
-1 6 3 2215.77 427.987 2
1 -6 4 1534.06 331.26 5
-1 6 4 1790.28 384.277 2
-1 -6 4 1550.72 324.894 5
1 -6 5 212.886 179.712 5
-1 6 5 166.036 185.647 2
-1 -6 5 20.8901 135.445 5
-1 6 6 539.342 268.84 2
1 -6 6 683.735 213.423 5
-1 -6 6 281.172 180.701 5
-1 -6 7 487.484 208.407 5
1 -6 7 309.609 167.821 5
-1 6 7 224.803 168.407 2
-1 -6 8 128.547 126.226 5
1 -6 8 -17.0087 124.409 5
-1 6 8 -38.9859 104.399 2
1 -6 9 -3.1097 94.0182 5
-1 6 9 -14.241 120.408 2
-1 -6 9 120.279 149.582 5
-1 -6 10 647.703 231.623 5
1 -6 10 863.876 268.256 5
-1 7 -3 -209.701 155.985 2
-1 7 -2 442.623 183.275 2
-1 7 -1 1068.32 291.874 2
-1 7 0 2431.02 463.429 2
-1 7 1 1052.77 338.131 2
-1 7 2 735.694 234.277 2
-1 7 3 58.8887 187.327 2
-2 0 -18 1102.52 287.035 6
-2 0 -18 1533.54 368.484 7
2 0 -17 420.751 229.776 3
-2 0 -17 84.2989 97.746 6
2 0 -17 298.393 161.662 7
-2 0 -17 352.032 182.151 7
-2 0 -16 1739.26 374.477 7
2 0 -16 1224.68 252.73 6
2 0 -16 1589.17 294.783 7
-2 0 -16 1445.31 297.55 6
2 0 -15 -61.2188 103.108 6
-2 0 -15 13.8621 176.01 7
-2 0 -15 131.947 116.665 6
2 0 -15 209.676 143.478 7
2 0 -14 38.8355 75.8284 6
-2 0 -14 217.047 128.781 6
2 0 -13 11645.5 664.618 6
-2 0 -13 12366.7 729.688 6
2 0 -12 903.274 185.731 6
-2 0 -12 378.241 137.246 6
2 0 -11 156.851 120.103 6
-2 0 -11 42.3166 78.5623 6
-2 0 -10 6308.85 450.697 6
2 0 -10 4894.82 176.125 5
-2 0 -10 6340.73 450.898 2
-2 0 -9 1602.9 218.09 6
2 0 -9 1252.83 100.157 5
-2 0 -9 1531.49 214.798 2
-2 0 -8 884.678 156.229 2
-2 0 -8 721.974 138.995 6
-2 0 -7 39065.6 999.067 6
-2 0 -7 41727.7 990.278 2
-2 0 -6 24284.8 721.151 6
-2 0 -6 24939.9 694.37 2
-2 0 -5 930.005 139.084 6
-2 0 -5 963.616 124.094 2
2 0 -5 942.993 149.56 3
-2 0 -4 936.704 112.094 2
2 0 -4 784.51 115.78 1
-2 0 -4 810.529 116.392 6
-2 0 -4 810.294 136.35 3
2 0 -4 765.932 133.115 3
2 0 -3 108094 1743.86 3
2 0 -3 110092 1658.39 1
-2 0 -3 111366 1444.04 2
-2 0 -3 106432 1690.81 3
2 0 -2 67285.6 1222.34 3
-2 0 -2 66720.8 962.329 2
-2 0 -2 63712.8 1161.03 3
-2 0 0 45309.2 930.95 3
2 0 0 43851.7 899.875 3
2 0 0 47209 830.748 4
-2 0 0 47116.8 830.94 4
-2 0 0 45472.6 629.932 7
2 0 2 65619.4 1054.05 4
2 0 2 67210.3 1094.53 6
-2 0 2 66570.9 1070.15 4
-2 0 2 66269.6 1182.25 3
2 0 2 67202.4 1000.91 2
2 0 2 67498.3 1169.31 3
2 0 3 110771 1575.3 6
-2 0 3 110448 1703.09 3
2 0 3 109471 1491.04 2
2 0 3 105719 1619.64 3
2 0 4 933.804 132.32 6
2 0 4 772.212 119.011 1
2 0 4 718.57 115.982 3
-2 0 4 753.565 126.096 1
2 0 4 766.318 105.336 2
-2 0 5 1142.02 160.493 1
2 0 5 868.389 122.959 2
2 0 5 923.012 138.312 1
-2 0 6 24825.9 810.129 1
2 0 6 24544.7 756.609 1
2 0 7 40631.9 1036.61 1
-2 0 7 39605.3 1108.56 1
2 0 8 659.993 141.971 1
-2 0 8 935.91 183.391 1
2 0 9 1377.75 100.262 5
-2 0 9 1356.69 211.962 1
2 0 9 1469.69 207.102 1
2 0 10 5025.15 150.661 5
2 0 10 4538.57 159.724 5
-2 0 10 5543.75 449.291 1
2 0 10 6689.55 469.435 1
2 0 11 23.1324 56.7982 1
-2 0 11 38.1655 65.5712 1
-2 0 12 820.913 214.534 1
2 0 12 696.701 179.38 1
2 0 13 12620.7 759.945 1
-2 0 13 11441.5 757.206 1
2 0 14 258.91 133.974 1
-2 0 14 296.95 162.137 1
-2 0 15 186.43 171.835 1
2 0 15 96.724 95.9708 1
2 0 16 1562.76 327.986 1
-2 0 16 1054.97 303.195 1
-2 0 17 139.833 166.303 1
2 0 17 318.067 164.479 1
2 0 18 1007.5 312.357 1
2 1 -18 429.131 167.701 6
2 -1 -18 302.635 226.684 3
-2 -1 -18 13.6183 167.134 7
-2 1 -18 140.292 158.591 6
-2 -1 -17 156.137 173.725 7
2 1 -17 -178.766 174.665 6
-2 1 -17 12.926 128.956 6
2 -1 -17 -32.9572 118.842 3
-2 -1 -16 761.223 217.919 7
2 1 -16 458.172 184.872 6
2 -1 -16 1054.91 302.324 3
2 -1 -16 516.922 173.693 7
-2 1 -16 779.633 222.482 6
-2 -1 -15 678.493 226.235 7
2 1 -15 862.954 231.049 6
-2 1 -15 583.53 178.426 6
2 -1 -15 626.343 174.937 7
2 -1 -15 422.203 184.433 3
-2 1 -14 1554.41 298.596 6
-2 -1 -14 1473.57 310.709 7
2 1 -14 1451.79 272.264 6
2 -1 -14 1168.51 268.494 3
2 -1 -14 1298.45 251.414 7
-2 1 -14 1602 296.32 2
2 -1 -13 2074.58 250.476 6
2 1 -13 1688.6 288.243 6
2 -1 -13 2158.15 350.754 3
2 -1 -13 1636.31 249.77 7
-2 -1 -13 2381.1 360.785 7
-2 1 -13 1854.03 297.879 6
-2 1 -13 1968.16 318.002 2
2 1 -12 5494.6 486.295 6
2 -1 -12 6768.91 471.092 7
2 -1 -12 6039.78 538.977 3
-2 -1 -12 7528.52 603.428 7
-2 1 -12 7450.17 570.405 2
2 -1 -12 8061.23 460.415 6
-2 1 -12 7163.67 574.933 6
2 -1 -11 8659.95 608.795 3
-2 1 -11 9634.22 628.478 6
-2 1 -11 10232.2 629.5 2
2 -1 -11 9132.63 462.807 6
2 -1 -11 9567.57 524.746 7
-2 -1 -11 9790.13 639.338 7
2 1 -10 549.044 79.4671 5
2 -1 -10 527.188 104.741 6
-2 1 -10 486.409 152.837 6
2 -1 -10 472.428 153.057 3
2 -1 -10 535.421 74.7144 5
2 -1 -10 386.938 109.788 7
-2 1 -10 750.817 171.316 2
-2 -1 -10 668.248 162.824 7
2 -1 -9 22878.2 914.198 3
2 -1 -9 23948.5 756.171 7
-2 1 -9 24163.7 919.538 6
2 -1 -9 24367.7 543.783 5
-2 1 -9 25238.4 900.826 2
2 -1 -9 23105.3 664.086 6
-2 -1 -9 24277.6 919.594 7
2 1 -9 24331.8 579.779 5
-2 -1 -8 367.822 160.707 7
2 -1 -8 129.852 82.8272 6
2 -1 -8 79.7059 47.2995 5
2 1 -8 105.527 56.7768 5
-2 1 -8 154.321 107.968 2
2 -1 -8 88.1981 70.3284 3
2 -1 -8 119.166 73.9522 7
-2 1 -8 127.941 91.809 6
-2 1 -7 352.689 125.083 6
2 -1 -7 192.151 97.4333 3
2 1 -7 100.483 58.541 5
-2 -1 -7 184.585 82.3082 7
2 -1 -7 121.473 62.0035 7
2 -1 -7 263.002 80.6546 6
-2 1 -7 159.337 89.6381 2
-2 1 -6 5919.14 376.899 2
-2 1 -6 6695.89 405.753 6
2 -1 -6 6084.36 302.162 7
-2 -1 -6 5646.93 355.568 3
-2 -1 -6 5488.89 366.212 7
2 -1 -6 5542.29 398.837 3
2 1 -6 5754.59 281.143 5
2 -1 -5 514.381 88.0199 7
-2 -1 -5 422.078 102.896 3
-2 -1 -5 445.254 100.288 7
2 1 -5 397.936 82.8527 5
-2 1 -5 490.282 126.338 6
-2 1 -5 264.276 110.056 2
2 -1 -5 620.277 149.831 3
2 1 -5 447.815 98.3601 2
2 -1 -4 2646.94 172.698 7
-2 1 -4 2123.83 236.073 6
-2 -1 -4 2663.66 242.738 7
-2 -1 -4 1671.97 171.559 3
2 1 -4 1718.42 153.186 5
2 -1 -4 1888.51 212.755 3
2 1 -4 1684.76 149.716 2
2 1 -4 1560.65 171.841 1
-2 1 -4 1883.71 198.717 2
2 1 -3 2845.45 228.888 3
-2 1 -3 2996.15 216.579 6
2 -1 -3 2698.34 155.888 7
-2 -1 -3 2837.32 199.393 3
2 1 -3 3268.53 247.057 1
2 1 -3 3180.52 271.352 4
2 -1 -3 2822.69 246.827 3
-2 1 -3 2862.24 232.39 2
-2 -1 -3 3054.59 240.776 7
2 -1 -3 3050.61 221.648 1
2 1 -3 2982.88 198.571 5
2 1 -3 3265.27 178.776 2
-2 1 -3 3005.83 264.754 3
2 -1 -2 67439.2 1289.91 3
-2 1 -2 69088 1275.35 2
-2 -1 -2 69430.7 1307.33 4
2 1 -2 69062.5 1117.03 5
2 1 -2 68094.1 1167.23 7
-2 -1 -2 65011.6 1066.03 3
2 1 -2 66774.8 895.527 2
2 1 -2 74151 1396.16 4
-2 1 -2 68586 1126.6 6
2 -1 -2 69322.1 1160.94 1
-2 -1 -2 68611.1 1238.81 7
-2 1 -2 65086.8 1294.84 3
2 1 -2 70249.2 1205.74 3
2 1 0 600193 6432.17 4
-2 1 2 69763.1 954.035 7
2 -1 2 68896.5 1143.54 6
2 1 2 66311.3 1072.92 5
-2 1 2 70521.3 1311.55 3
2 1 2 65987.4 807.094 2
2 1 2 69561.2 1190.94 7
2 1 2 68292.4 1323.72 4
2 -1 2 68216.4 1279.47 3
-2 -1 2 69105.5 1349.76 4
-2 -1 2 66694.9 919.299 2
2 -1 2 65986.3 1291.05 2
2 1 2 68369 1044.72 3
2 -1 3 3038.23 232.073 6
2 1 3 2740.58 226.944 1
2 1 3 2899.84 188.955 5
-2 1 3 3076.99 244.856 3
2 1 3 2837.69 145.361 2
-2 -1 3 2639.01 236.899 4
2 1 3 2654.74 238.542 4
-2 -1 3 2935.58 171.983 2
-2 1 3 3161.81 236.87 1
2 1 3 2798.1 211.442 7
2 -1 3 2769.83 239.286 2
2 1 3 2859.68 180.695 3
2 -1 3 3170.12 253.939 3
-2 1 3 2799.07 144.192 7
2 1 4 1648.65 133.296 2
2 1 4 1740.9 152.673 5
-2 1 4 2910.35 171.235 7
2 -1 4 1605.51 156.994 1
-2 -1 4 1395.19 183.335 4
-2 1 4 1739.63 199.198 3
-2 -1 4 1628.51 149.789 2
-2 1 4 1595.4 187.194 1
2 -1 4 1706.07 202.897 3
2 1 4 1518.33 182.364 1
-2 1 5 575.846 130.485 1
2 1 5 463.596 118.762 1
2 1 5 438.338 121.402 6
2 1 5 519.615 89.88 5
-2 -1 5 590.647 148.901 4
2 -1 5 299.392 91.7529 1
2 1 5 481.448 91.044 2
2 1 6 5582.77 372.742 1
2 -1 6 5693.39 327.972 1
2 1 6 5739.82 277.51 5
-2 -1 6 6417.72 436.478 4
-2 -1 6 6345.74 399.513 1
-2 1 6 5940.17 390.449 1
-2 -1 7 166.706 95.3433 1
-2 1 7 155.47 95.6271 1
2 -1 7 112.529 63.5876 1
2 1 7 171.702 56.5906 5
2 -1 7 166.447 63.4425 5
2 1 7 217.734 90.5828 1
-2 1 8 167.397 101.884 1
2 1 8 142.801 54.9078 5
2 -1 8 218.384 100.46 1
-2 -1 8 367.146 132.478 1
2 1 8 170.865 100.697 1
2 -1 8 193.378 62.7032 5
-2 1 9 25009.9 959.761 1
2 -1 9 25355 842.514 1
2 -1 9 23818.7 549.923 5
-2 -1 9 24767.8 936.392 1
2 1 9 24822.6 557.536 5
2 1 9 25636.5 939.786 1
-2 1 10 449.605 151.032 1
-2 -1 10 457.502 144.594 1
2 1 10 535.421 76.7402 5
2 -1 10 517.206 76.1068 5
2 1 10 660.083 156.363 1
2 -1 10 841.809 164.907 1
-2 -1 11 9194.41 619.616 1
2 -1 11 8619.51 282.639 5
-2 1 11 9572.38 644.78 1
2 -1 11 10015 578.913 1
2 1 11 10015.8 633.05 1
-2 -1 12 6942.31 560.187 1
-2 1 12 6929.71 581.965 1
2 -1 12 7324.54 530.568 1
2 1 12 8518.37 612.527 1
2 -1 13 1748.32 270.379 1
2 1 13 2114.87 315.449 1
-2 1 13 1986.97 338.063 1
-2 -1 13 2105.98 345.737 1
2 1 14 983.499 236.237 1
-2 -1 14 1189.42 268.654 1
-2 1 14 1565.84 314.137 1
2 -1 14 1494.73 270.853 1
-2 -1 15 317.212 171.186 1
-2 1 15 545.258 187.04 1
2 1 15 844.284 246.588 1
2 -1 15 664.763 201.444 1
2 -1 16 779.625 246.174 1
-2 -1 16 791.779 245.409 1
-2 1 16 772.197 242.088 1
2 1 16 731.697 259.025 1
2 1 17 9.67339 125.853 1
-2 -1 17 78.4126 125.709 1
-2 1 17 110.158 148.789 1
2 -1 17 131.336 151.748 1
-2 -1 18 95.9545 115.469 1
2 -1 18 186.072 124.549 1
2 -2 -18 1453.33 381.043 3
2 2 -18 1289.08 353.497 6
-2 2 -17 187.998 170.083 6
2 -2 -17 -19.9165 112.154 3
-2 -2 -17 434.033 268.246 7
2 2 -17 185.676 160.216 6
2 2 -16 128.779 118.072 6
-2 2 -16 104.67 127.056 6
2 -2 -16 -4.25178 103.781 3
-2 -2 -16 110.715 166.15 7
-2 2 -16 76.832 114.938 2
2 2 -15 194.59 153.245 6
-2 2 -15 -12.5564 116.409 6
2 -2 -15 70.9522 82.4799 7
2 -2 -15 238.638 136.328 3
-2 -2 -15 255.976 181.135 7
-2 2 -15 166.744 152.066 2
2 -2 -14 2338.96 363.068 7
2 2 -14 2413.03 403.967 6
-2 2 -14 2446.57 383.663 2
-2 -2 -14 2591.78 419.81 7
2 -2 -14 2369.46 394.88 3
-2 2 -14 2596.6 405.352 6
2 2 -13 488.273 228.285 6
2 -2 -13 981.585 279.92 7
-2 2 -13 504.727 234.748 6
-2 -2 -13 518.627 219.747 7
2 -2 -13 311.105 167.307 3
-2 2 -13 227.478 118.982 2
-2 -2 -12 222.112 127.779 7
2 -2 -12 99.3263 95.7534 3
2 -2 -12 127.566 101.855 7
-2 2 -12 44.2222 85.5233 2
2 -2 -11 764.572 190.007 7
2 -2 -11 749.307 117.934 5
-2 2 -11 839.65 227.386 6
-2 -2 -11 545.18 182.707 7
2 -2 -11 640.018 178.47 3
-2 2 -11 780.619 189.886 2
2 2 -11 562.221 155.802 2
-2 -2 -10 21936.7 1003.62 7
2 -2 -10 22880.6 919.433 7
2 -2 -10 23214.9 676.457 5
2 -2 -10 21849.4 985.332 3
2 2 -10 23964.6 935.114 2
-2 2 -10 22707.1 1006.47 6
-2 2 -10 24021 986.835 2
2 -2 -9 251.637 80.6563 5
-2 2 -9 93.3694 108.638 6
2 -2 -9 73.1016 82.197 3
2 -2 -9 294.053 144.108 7
-2 2 -9 198.222 116.716 2
2 2 -9 293.63 102.179 2
-2 -2 -9 265.879 139.923 7
-2 2 -8 1150.7 198.177 6
-2 -2 -8 1562.98 265.377 7
2 -2 -8 1196.76 182.332 7
2 2 -8 1603.37 223.471 2
2 -2 -8 1650.83 255.906 3
-2 2 -8 1590.3 239.369 2
2 -2 -8 1274.23 156.086 5
-2 -2 -7 1122.02 162.839 3
-2 2 -7 1262.86 198.242 6
-2 2 -7 1488.04 230.373 2
2 -2 -7 995.713 192.085 3
2 -2 -7 1260.46 176.25 7
2 -2 -7 1523.21 168.486 5
2 2 -7 1211.14 178.356 2
-2 -2 -7 1429.83 242.47 7
2 -2 -6 4223.36 278.537 5
2 -2 -6 4381.17 317.885 7
-2 -2 -6 4306.37 385.361 7
-2 2 -6 4246.73 354.257 6
2 2 -6 5014.34 331.588 2
-2 2 -6 4804.66 388.614 2
2 -2 -6 4914.18 395.441 3
-2 -2 -6 4260.89 283.769 3
-2 -2 -5 2334.86 275.641 7
-2 2 -5 2323.09 252.032 6
2 -2 -5 2317.1 231.477 7
2 -2 -5 2094.41 244.373 3
-2 -2 -5 2578.52 235.285 5
2 -2 -5 2660.88 225.757 5
-2 2 -5 2141.31 263.049 2
2 2 -5 2190.48 209.029 2
2 2 -5 2103.15 199.913 1
-2 -2 -5 2284.91 187.428 3
-2 2 -4 46379.5 1131.99 6
-2 -2 -4 50521.2 1097.24 5
2 -2 -4 46252.8 1153.96 3
-2 -2 -4 46808.5 1256.99 7
2 -2 -4 49057.3 1032.38 5
2 2 -4 49385.1 980.508 2
2 2 -4 50899.3 1043.36 1
2 -2 -4 47900.3 1084.57 7
-2 2 -4 47602.6 1250.21 2
-2 -2 -4 47427.8 859.753 3
2 -2 -3 2679.05 251.927 3
2 -2 -3 3297.1 244.326 5
-2 2 -3 2846.03 243.124 6
-2 -2 -3 2497.49 148.06 3
-2 -2 -3 3057.35 249.15 5
-2 -2 -3 2731.47 279.244 7
-2 2 -3 3246.63 305.015 2
2 2 -3 3134.77 216.076 2
2 -2 -3 3331.84 241.382 1
2 2 -2 17559.4 499.364 2
-2 -2 -2 17960.1 604.465 5
-2 -2 -2 15384.1 323.703 3
-2 -2 -2 16296.6 680.093 7
-2 2 -2 16612.7 563.89 6
-2 2 -2 17226.8 700.678 2
2 -2 -2 18583 529.358 1
-2 -2 -2 17092.8 697.401 4
2 2 -2 17524.4 541.886 3
2 -2 -2 17117.9 562.156 5
2 -2 -2 16117.6 600.943 3
2 -2 -1 33758.6 817.162 5
2 -2 -1 31723.8 869.146 3
-2 -2 -1 32916.6 845.282 5
-2 -2 -1 32265.8 973.331 4
-2 2 -1 31930.7 747.408 6
-2 -2 -1 30378.1 950.851 7
2 2 -1 33730.6 684.872 2
2 -2 -1 34124.9 688.646 1
-2 2 -1 29807.5 939.929 2
2 2 -1 32837.2 704.749 3
-2 2 -1 32106.3 927.078 3
2 2 0 111796 1459.78 3
-2 2 0 115106 1568.13 6
-2 -2 0 113414 1786.16 5
2 -2 0 114875 1732.05 5
-2 -2 0 115711 2069.16 4
-2 2 0 112682 1351.62 4
2 2 0 114439 1523.38 2
2 -2 0 117859 1470.7 1
-2 2 0 110737 2019.94 2
2 -2 0 113285 1853.17 3
-2 -2 0 109035 1980.9 7
-2 2 0 121766 2011.01 3
-2 -2 1 33346.1 1041.31 4
-2 -2 1 32540.5 842.877 5
-2 2 1 33303.6 888.271 7
-2 2 1 36615.1 1007.47 3
-2 2 1 32463.7 617.836 4
-2 2 1 34735.7 646.716 6
2 -2 1 32043.7 794.016 5
2 -2 1 30437.2 502.238 4
2 2 1 31400.5 677.762 2
-2 -2 1 32822.9 746.281 2
2 2 1 32267 578.76 3
2 -2 1 32653.3 882.918 3
2 2 2 17093 592.227 1
-2 2 2 17090 376.113 6
2 -2 2 16733.8 549.82 5
-2 -2 2 17716.1 601.927 5
-2 2 2 18525.9 631.689 7
-2 2 2 19190.5 689.905 3
-2 -2 2 16542.8 516.975 2
-2 2 2 16205.7 542.315 1
2 2 2 16403.8 314.971 3
2 -2 2 17834.5 648.865 3
-2 -2 2 19818.7 817.478 4
2 -2 2 17543.3 412.254 4
-2 2 3 2854.18 248.432 3
2 -2 3 3306.33 284.014 3
2 -2 3 3144.2 237.082 5
2 2 3 3221.37 262.009 1
-2 2 3 2826.1 234.873 1
-2 2 3 2905.24 234.881 7
2 -2 3 2894.02 160.49 1
-2 -2 3 3243.7 252.706 5
2 -2 3 3158.08 185.657 4
-2 -2 3 2922.82 229.153 2
-2 -2 3 2828.35 299.929 4
2 -2 4 48289.5 803.688 1
2 -2 4 47462.1 997.378 5
-2 -2 4 49173.5 1085.74 5
-2 -2 4 44152.6 1243.14 4
2 -2 4 49052.5 933.557 4
2 2 4 47736.8 1115.28 1
-2 2 4 45693.4 1064.53 3
-2 2 4 49284.2 1131.02 1
-2 -2 4 45596.7 1031.83 2
2 -2 4 47112.5 1176.53 3
-2 2 4 49247.2 1058.22 7
2 2 5 2707.17 262.815 1
2 -2 5 2301.65 165.722 1
-2 2 5 2316.5 215.241 7
2 -2 5 2091.99 197.285 5
-2 -2 5 2132.92 218.644 5
-2 -2 5 2201.13 280.584 4
-2 2 5 2466.8 256.042 1
2 -2 6 4900.08 299.589 5
2 2 6 4398.41 353.626 1
-2 -2 6 4016.49 376.299 4
-2 2 6 5030.58 380.114 1
2 -2 6 5040.85 270.541 1
-2 2 7 1201.02 192.251 1
-2 -2 7 1099.1 205.017 4
2 -2 7 1060.32 137.559 5
2 2 7 1378.4 200.652 1
2 -2 7 1491.52 158.9 1
2 2 8 1602.41 235.72 1
-2 2 8 1339.28 212.561 1
-2 -2 8 1419.77 256.159 4
2 -2 8 1371.24 167.194 1
2 -2 8 1524.08 169.359 5
2 -2 9 107.664 77.8254 5
-2 2 9 110.401 82.7865 1
2 2 9 84.0586 72.5154 1
2 -2 9 117.23 77.7542 1
-2 -2 9 119.391 106.077 4
-2 -2 10 22261.5 937.91 1
-2 -2 10 22316.2 1091.31 4
2 -2 10 22718.4 691.295 5
-2 2 10 22601 985.674 1
2 -2 10 22873.1 796.306 1
2 2 10 23676.2 980.946 1
-2 -2 11 688.348 176.879 1
2 2 11 966.364 210.954 1
2 -2 11 799.057 154.298 1
-2 2 11 406.183 139.223 1
-2 -2 11 688.508 228.839 4
2 -2 11 726.059 126.081 5
2 2 12 234.769 132.624 1
-2 -2 12 99.3743 111.567 1
-2 2 12 183.546 92.522 1
2 -2 12 108.847 74.9765 1
-2 -2 12 359.114 184.522 4
-2 -2 13 363.497 136.453 1
-2 2 13 581.973 177.14 1
2 2 13 392.362 164.378 1
2 -2 13 544.17 152.497 1
-2 -2 13 320.062 198.111 4
-2 -2 14 2096.73 348.37 1
-2 2 14 2283.22 380.04 1
2 -2 14 2485.56 334.96 1
2 2 14 2844.78 414.005 1
-2 -2 14 2355.75 421 4
-2 -2 15 84.2048 121.552 1
2 2 15 46.5817 119.256 1
2 -2 15 184.118 121.937 1
-2 -2 15 110.236 116.123 4
-2 2 15 174.941 139.568 1
-2 -2 16 -107.991 98.7949 1
-2 2 16 80.7785 137.816 1
2 -2 16 64.2637 90.204 1
-2 -2 16 78.8147 142.842 4
2 2 16 54.78 85.8452 1
-2 -2 17 -163.139 153.023 1
-2 -2 18 1014.08 332.133 1
-2 -3 -16 356.901 221.662 7
2 3 -16 450.707 224.496 6
-2 3 -15 1833.66 413.892 6
-2 -3 -15 1740.38 384.246 7
2 3 -15 1505.12 339.204 6
-2 3 -15 1917.99 376.358 2
-2 -3 -14 781.683 261.832 7
2 -3 -14 494.244 203.342 3
2 3 -14 1516.89 363.392 6
-2 3 -14 1364.44 340.181 6
-2 3 -14 1133.13 280.231 2
-2 -3 -13 1435.39 315.518 7
-2 3 -13 1426.12 318.856 6
2 -3 -13 1584.27 287.002 7
2 -3 -13 1596.05 333.228 3
2 3 -13 1840.09 323.503 2
-2 3 -13 1818.6 336.249 2
2 -3 -12 3266.77 443.14 3
2 -3 -12 3260.64 422.753 7
2 3 -12 3272.65 409.061 2
-2 3 -12 3236.89 417.194 2
-2 3 -12 2804.57 413.454 6
-2 -3 -12 3707.24 502.45 7
2 -3 -11 -5.83134 102.079 7
-2 -3 -11 30.1905 122.694 7
-2 3 -11 -223.609 164.653 6
-2 3 -11 170.804 165.513 2
2 3 -11 -2.20308 73.8724 2
2 -3 -11 219.141 149.022 3
2 -3 -10 19494 958.839 7
2 -3 -10 20446.3 1006.63 3
-2 3 -10 19947.5 1022.82 6
2 -3 -10 20265.7 768.521 5
-2 -3 -10 18975.1 1052.99 7
2 3 -10 21587.1 939.656 2
-2 3 -10 21787 1032.41 2
-2 3 -9 9396.17 672.843 6
2 -3 -9 9160.11 624.254 7
-2 -3 -9 9423.28 706.448 7
2 -3 -9 9607.79 657.781 3
2 3 -9 9982.75 602.967 2
2 -3 -9 9810.26 528.79 5
-2 3 -9 9976.96 679.141 2
2 -3 -8 8716.69 588.536 3
2 -3 -8 9053.39 602.323 7
2 -3 -8 9680.74 530.606 5
-2 -3 -8 11515.5 611.587 5
2 3 -8 10407.9 586.737 2
-2 3 -8 10068.3 671.408 2
-2 -3 -8 9754.73 698.496 7
-2 3 -8 8971.15 622.693 6
-2 3 -7 101.824 87.0249 2
-2 3 -7 -4.03421 87.7839 6
2 3 -7 142.761 79.5991 2
-2 -3 -7 142.686 56.1442 3
2 -3 -7 168.106 77.3818 5
-2 -3 -7 -37.6881 102.601 7
2 -3 -7 29.2115 91.725 7
-2 -3 -7 189.344 79.8007 5
2 -3 -7 87.3751 73.929 3
2 -3 -6 711.701 147.416 5
-2 3 -6 753.454 183.013 2
2 -3 -6 574.375 156.097 7
-2 -3 -6 547.573 87.548 3
-2 3 -6 604.579 162.837 6
-2 -3 -6 423.265 139.242 7
2 -3 -6 528.966 134.49 3
-2 -3 -6 806.707 171.118 5
2 3 -6 714.566 144.878 2
-2 -3 -6 550.881 77.2223 3
-2 3 -5 1879.84 278.596 2
2 -3 -5 1848.1 246.514 7
2 -3 -5 2026.13 242.313 3
2 -3 -5 2183.46 242.212 5
-2 -3 -5 2230.81 260.412 5
2 3 -5 2126.64 237.696 2
2 3 -5 2240.75 196.651 1
-2 3 -5 1691.54 249.595 6
-2 -3 -5 2020.71 309.536 7
-2 3 -4 905.459 187.752 2
2 -3 -4 647.627 139.312 3
2 3 -4 906.72 125.109 1
-2 3 -4 1184.15 244.586 6
2 3 -4 949.579 157.023 2
-2 -3 -4 838.245 164.315 5
2 -3 -4 815.224 165.302 5
-2 -3 -4 1678.69 338.003 7
-2 -3 -3 1781.9 279.258 7
-2 3 -3 1606.93 245.436 6
2 -3 -3 1720.17 219.016 5
2 3 -3 1569.29 192.749 2
2 -3 -3 1540.47 202.048 3
-2 3 -3 1938.65 273.671 2
-2 -3 -3 1479.97 214.26 5
-2 -3 -2 102.882 105.998 7
-2 3 -2 61.179 79.5098 6
2 3 -2 24.0307 49.5005 2
2 3 -2 77.9345 56.1349 3
2 -3 -2 27.6583 52.6003 5
-2 -3 -2 92.3242 89.219 5
-2 3 -2 157.775 92.5625 2
2 -3 -2 93.3199 48.1917 1
-2 -3 -2 56.3553 76.566 4
2 -3 -2 33.3619 41.5246 3
2 -3 -1 33420.6 982.411 5
-2 3 -1 32557.7 875.875 6
-2 -3 -1 30983 1131.43 7
-2 -3 -1 33549.8 1146.36 4
-2 3 -1 34462.8 707.276 4
2 3 -1 34564.7 883.705 2
-2 -3 -1 35844.2 1041.46 5
2 3 -1 33996.2 726.968 3
-2 3 -1 32670.7 1121.17 2
2 -3 -1 34549.3 685.024 1
2 -3 -1 33921.3 946.585 3
2 3 0 6981.8 255.315 3
-2 3 0 7282.76 364.732 6
2 3 0 7926.68 386.764 1
-2 -3 0 8162.93 484.003 5
2 3 0 7322.17 234.857 3
-2 -3 0 7393.88 522.917 4
-2 3 0 8246.04 355.269 4
2 3 0 7763.31 405.567 2
-2 3 0 7273.42 523.004 2
2 -3 0 8117.87 260.299 1
2 -3 0 7622.2 435.985 3
2 -3 0 7890.56 455.936 5
-2 3 1 37985.5 1120.58 3
2 -3 1 35224.2 991.566 5
-2 -3 1 34348 1171.11 4
-2 3 1 34056.4 813.837 4
2 3 1 34008.3 872.014 1
2 3 1 32309.6 899.82 2
-2 3 1 33655.4 1194.53 2
2 -3 1 34189.6 503.569 1
2 -3 1 33922.6 968.372 3
-2 -3 1 35445.9 1034.78 5
-2 3 1 33665 765.33 6
2 3 2 111.624 60.8058 1
2 -3 2 -1.01431 59.8858 5
-2 3 2 123.935 68.8634 3
-2 -3 2 21.1842 60.3432 5
2 3 2 -15.8008 43.0954 2
-2 3 2 -61.6913 88.6227 2
2 -3 2 151.185 54.6466 4
-2 3 2 99.987 62.4552 4
-2 -3 2 62.0649 64.5984 4
-2 3 2 24.6224 41.7276 1
-2 3 2 64.1949 40.9426 6
2 -3 2 155.851 86.5417 3
-2 3 3 1612.31 117.418 6
-2 3 3 1526.25 192.022 3
2 -3 3 1958.54 226.825 5
-2 -3 3 1370.73 207.077 5
-2 3 3 1564.36 190.681 4
2 3 3 1456.04 185.322 1
2 -3 3 1722.81 169.433 4
-2 3 3 1503.66 191.444 1
-2 -3 3 1194.1 223.546 4
2 -3 3 1921.38 237.003 3
2 3 4 873.75 148.545 1
2 -3 4 633.557 134.833 5
-2 3 4 968.902 165.541 1
-2 -3 4 1052.45 176.933 5
-2 -3 4 987.177 217.593 4
2 -3 4 874 140.353 4
2 -3 5 2079.39 225.694 4
2 -3 5 1817.04 220.391 5
-2 -3 5 2315.26 263.781 5
-2 3 5 2083.68 248.854 1
2 -3 5 1649.6 105.536 1
-2 -3 5 1796.02 291.144 4
2 3 5 2132.88 237.858 1
2 -3 6 565.4 132.425 5
-2 -3 6 576.358 134.093 5
-2 3 6 502.815 133.101 1
2 3 6 820.616 157.054 1
2 -3 6 674.626 78.8864 1
-2 -3 6 723.72 184.71 4
2 -3 6 504.145 128.338 4
2 -3 7 123.74 77.3221 4
2 -3 7 140.103 83.4218 5
-2 3 7 71.957 60.9298 1
-2 -3 7 41.6367 56.3457 5
2 3 7 276.688 101.489 1
2 -3 7 165.072 53.4293 1
-2 -3 7 122.823 87.3483 4
-2 -3 8 10450.8 587.255 5
-2 -3 8 8249.36 646.392 4
2 -3 8 9208.67 576.708 4
-2 3 8 9111.01 587.771 1
2 -3 8 9451.03 389.356 1
2 -3 8 9559.58 529.145 5
2 3 8 9541.65 588.278 1
-2 -3 9 7966.03 662.26 4
2 -3 9 9122 617.861 4
2 -3 9 9599.96 534.209 5
-2 3 9 8690.93 596.619 1
2 -3 9 9273.08 427.438 1
2 3 9 9833.36 622.899 1
2 -3 10 21125 998.133 4
2 -3 10 20067.4 779.299 5
-2 -3 10 17822 1043.29 4
-2 3 10 18932.1 931.367 1
2 -3 10 19225.1 674.654 1
2 3 10 20690.7 954.128 1
2 -3 11 59.4745 81.0843 5
-2 3 11 119.164 116.595 1
2 3 11 42.4452 91.6342 1
-2 -3 11 269.576 169.892 4
2 -3 11 15.4958 110.27 4
2 -3 12 3228.53 427.26 4
-2 3 12 2965.58 404.509 1
-2 -3 12 2674.52 473.212 4
2 3 12 3881.19 450.902 1
2 3 13 2051.49 345.617 1
-2 3 13 1498.45 302.104 1
-2 -3 13 1445.79 354.044 4
2 -3 13 2034.85 365.059 4
2 3 14 1174.57 294.846 1
-2 3 14 786.933 251.084 1
-2 -3 14 547.878 221.931 4
2 -3 14 947.844 287.118 4
-2 3 15 1640.9 359.189 1
2 3 15 2450.55 421.68 1
-2 -3 15 2141.58 478.897 4
2 -3 15 1568.45 348.177 4
-2 -3 16 375.782 260.449 4
2 -3 16 417.352 188.562 4
2 -3 17 580.669 250.017 4
-2 -4 -15 -91.632 205.675 7
2 4 -15 23.6512 117.47 2
-2 -4 -14 7.47074 133.438 7
2 4 -14 -5.56127 129.906 6
-2 4 -14 180.58 179.934 6
2 4 -14 16.5294 96.5591 2
-2 -4 -13 -188.478 190.175 7
-2 4 -13 62.247 84.847 2
-2 4 -13 39.2929 126.595 6
2 4 -13 262.32 189.49 2
-2 -4 -12 643.073 236.693 7
-2 4 -12 615.223 238.819 6
-2 4 -12 924.599 253.304 2
2 4 -12 685.987 203.387 2
2 -4 -12 789.3 233.949 7
-2 4 -11 8099.29 731.667 6
-2 -4 -11 7716 768.262 7
2 -4 -11 8169.58 721.198 7
2 4 -11 8246.3 645.961 2
-2 4 -11 8967.67 740.43 2
-2 4 -10 1607.78 308.175 2
-2 -4 -10 1734.5 378.788 7
-2 4 -10 1432.75 306.918 6
2 -4 -10 1354.74 273.612 7
2 -4 -10 1982.43 280.256 5
2 4 -10 1646.61 289.463 2
-2 -4 -9 14612.8 1017.56 7
2 -4 -9 15489 919.126 7
2 -4 -9 16625.5 813.219 5
-2 -4 -9 18734.3 927.721 5
-2 4 -9 15851.3 962.856 6
-2 4 -9 16529.6 968.856 2
2 4 -9 17372.4 869.765 2
-2 4 -8 632.051 213.387 6
-2 -4 -8 869.097 297.745 7
2 4 -8 722.711 186.427 2
-2 4 -8 508.745 176.945 2
2 -4 -8 852.511 203.338 5
-2 -4 -8 911.042 210.162 5
2 -4 -8 319.999 139.786 7
-2 -4 -7 126.323 186.677 7
2 -4 -7 59.2992 83.4317 3
2 -4 -7 -11.4182 83.4106 5
-2 -4 -7 30.0491 69.6283 5
-2 4 -7 -164.269 143.308 2
-2 4 -7 28.3239 122.245 6
2 4 -7 28.7543 69.2265 2
2 -4 -7 -100.182 119.412 7
2 -4 -6 1300.71 235.801 5
-2 4 -6 1064.32 235.203 6
2 -4 -6 1255.11 194.698 3
-2 -4 -6 1158.12 261.782 7
-2 -4 -6 1384.15 248.156 5
-2 4 -6 1400.46 277.578 2
2 4 -6 1278.87 227.151 2
2 -4 -5 151.575 71.8989 3
-2 4 -5 108.42 116.454 6
-2 4 -5 22.5139 96.9394 2
-2 -4 -5 129.817 114.34 7
2 -4 -5 449.27 173.881 5
-2 -4 -5 39.6974 92.1571 5
2 4 -5 80.836 74.9938 2
-2 -4 -4 8119.21 655.341 7
-2 -4 -4 8954.95 603.432 5
2 4 -4 8780.25 528.37 2
2 -4 -4 8531.13 567.208 5
-2 4 -4 8613.01 645.517 2
-2 4 -4 7434.98 529.421 6
2 -4 -4 7720.54 453.348 3
2 -4 -3 19345.9 856.155 5
-2 -4 -3 17678.5 972.541 7
-2 4 -3 17738.9 781.905 6
2 4 -3 19565.1 788.343 2
-2 4 -3 18196.5 935.932 2
-2 -4 -3 20221.1 900.723 5
2 -4 -3 19730.2 720.413 3
2 4 -2 7302.16 326.58 1
-2 4 -2 6630.99 453.179 6
2 -4 -2 6183.65 319.646 1
2 -4 -2 7307.37 519.792 5
-2 -4 -2 6867.65 516.986 5
-2 -4 -2 6587.22 581.883 7
2 4 -2 6908.86 456.854 2
-2 4 -2 7455.3 593.913 2
2 -4 -2 7118.42 421.438 3
2 4 -2 6551.2 339.699 3
2 -4 -1 5507.35 450.51 5
-2 4 -1 5362.69 383.171 6
-2 4 -1 5438.81 508.751 2
-2 -4 -1 5201.21 496.221 4
2 4 -1 5326.42 287.817 1
2 4 -1 5328.04 395.363 2
-2 -4 -1 5841.37 473.669 5
2 -4 -1 5129.37 254.417 1
2 -4 -1 5596.52 374.589 3
2 4 -1 5056.75 257.252 3
-2 4 0 150.005 93.595 2
2 -4 0 133.026 65.0868 3
2 -4 0 119.952 32.3744 1
-2 4 0 163.575 97.2803 6
2 4 0 96.3293 57.8313 2
2 4 0 261.525 75.5366 1
-2 -4 0 204.965 92.327 5
-2 -4 0 168.046 105.843 4
2 -4 0 241.721 127.283 5
2 -4 1 5072.04 432.764 5
2 4 1 5068.38 311.381 1
-2 -4 1 5784.85 471.315 5
-2 4 1 5433.35 344.92 6
-2 -4 1 5868.29 519.082 4
2 4 1 5010.62 397.325 2
-2 4 1 5523.75 537.296 2
2 -4 1 5914.28 402.405 3
-2 4 2 6501.64 341.866 6
2 -4 2 6906.7 495.167 5
-2 -4 2 7156.45 531.168 5
2 -4 2 7674.35 408.11 4
-2 -4 2 6597.66 563.658 4
2 4 2 7296.67 491.737 2
-2 4 2 7614.55 648.203 2
2 4 2 6518.3 368.467 1
-2 -4 3 20311 899.845 5
2 -4 3 19458.4 856.299 5
-2 -4 3 18771.9 962.861 4
2 -4 3 18106.8 657.257 4
2 4 3 18732.1 673.647 1
-2 4 3 17289.8 694.497 1
-2 4 3 19160.2 532.291 6
2 4 3 19594.3 867.056 2
-2 4 3 21131.7 1105.33 2
2 -4 4 8627.69 571.055 5
-2 -4 4 9378.1 613.175 5
2 -4 4 7804.46 443.282 4
-2 -4 4 8875.44 683.531 4
2 4 4 7695.98 554.517 2
-2 4 4 7845.59 475.338 1
2 4 4 7344.33 449.716 1
-2 4 5 131 111.356 1
2 4 5 10.9995 56.9804 1
-2 -4 5 -0.72642 74.644 5
2 -4 5 61.9152 72.4512 4
-2 -4 5 36.0353 126.426 4
2 -4 5 220.977 130.536 5
-2 -4 6 1148.89 231.159 5
-2 4 6 1301.83 234.932 1
2 4 6 1201.47 210.202 1
-2 -4 6 814.57 243.893 4
2 -4 6 1184.09 208.452 4
2 -4 6 1241.13 236.975 5
2 4 7 -45.067 52.5921 1
-2 -4 7 35.0478 110.132 5
2 -4 7 -15.0197 69.2135 5
-2 4 7 2.79028 67.4039 1
-2 -4 7 -67.6562 144.212 4
2 -4 7 48.7903 77.9784 4
-2 4 8 849.38 206.872 1
2 -4 8 661.598 169.312 5
-2 -4 8 927.332 219.064 5
-2 -4 8 686.931 226.787 4
2 -4 8 845.001 215.327 4
2 4 8 762.404 182.318 1
-2 -4 9 20579.7 969.767 5
2 -4 9 17275.3 838.179 5
-2 -4 9 15150.9 1008.28 4
2 -4 9 14846.6 834.295 4
-2 4 9 15302.4 827.577 1
2 4 9 16665.5 847.189 1
-2 4 10 1151.96 234.741 1
-2 -4 10 1221.91 256.64 5
2 -4 10 1502.27 250.012 5
-2 -4 10 1749.91 380.366 4
2 -4 10 1390.01 280.848 4
2 4 10 1811.48 289.897 1
2 -4 11 6921.78 620.417 4
2 -4 11 8223.9 578.98 5
-2 4 11 7422.49 627.058 1
-2 -4 11 6994.4 752.562 4
2 4 11 8342.28 655.107 1
2 4 12 911.896 240.887 1
-2 4 12 517.125 187.826 1
-2 -4 12 677.163 301.065 4
-2 4 13 67.1199 138.083 1
2 4 13 -71.1463 117.719 1
-2 -4 13 22.5747 148.937 4
-2 4 14 462.246 224.044 1
-2 -4 14 -88.0915 145.267 4
2 4 14 189.329 183.056 1
2 5 -13 766.265 252.086 2
-2 -5 -12 -34.5103 151.511 7
2 5 -12 89.2056 125.683 2
-2 5 -11 1982.93 393.558 2
-2 5 -11 1596.73 378.127 6
-2 -5 -11 1273.88 354.42 7
2 5 -11 1493.6 307.951 2
-2 -5 -10 2051.69 440.283 7
-2 -5 -10 2689.66 425.08 5
-2 5 -10 2173.93 387.68 6
-2 5 -10 2464.95 415.752 2
2 -5 -10 1993.61 321.959 5
2 5 -10 2563.42 379.057 2
-2 -5 -9 3906.81 582.212 7
-2 5 -9 4069.05 519.101 6
2 -5 -9 4358.92 479.641 5
-2 -5 -9 4489.4 512.814 5
2 5 -9 4524.87 481.621 2
-2 5 -9 5300.4 606.535 2
-2 5 -8 609.904 198.554 2
-2 -5 -8 833.808 227.114 5
-2 -5 -8 574.342 214.618 7
-2 5 -8 434.484 197.421 6
2 -5 -8 459.347 157.673 5
2 5 -8 596.957 193.295 2
-2 5 -7 462.286 172.802 2
-2 -5 -7 1150.64 274.247 5
-2 5 -7 898.735 255.887 6
2 -5 -7 833.088 220.785 5
2 5 -7 850.279 220.847 2
-2 -5 -7 768.231 227.058 7
2 -5 -6 568.494 164.022 5
-2 5 -6 705.431 213.455 6
-2 5 -6 772.259 232.167 2
-2 -5 -6 739.207 231.814 5
2 5 -6 506.942 165.342 2
-2 -5 -6 612.445 269.719 7
2 5 -5 393.01 130.901 2
-2 -5 -5 381.467 166.329 7
-2 -5 -5 399.367 144.071 5
-2 5 -5 634.202 194.158 6
-2 5 -5 636.876 231.561 2
2 -5 -5 201.872 133.198 5
-2 5 -4 2670.41 364.861 6
2 5 -4 1792.15 265.689 2
2 -5 -4 1837.69 307.69 5
-2 5 -4 2115.39 354.175 2
-2 -5 -4 1799.12 314.483 5
2 5 -3 279.753 97.9491 2
-2 5 -3 415.567 187.055 2
2 -5 -3 529.474 169.778 5
-2 -5 -3 495.492 183.448 5
-2 5 -3 319.036 141.937 6
2 5 -2 661.463 183.16 2
-2 5 -2 750.081 223.111 2
-2 -5 -2 1081.22 257.517 5
2 -5 -2 883.999 219.973 5
-2 5 -2 950.806 198.079 6
2 -5 -1 26544.8 1149.55 5
-2 -5 -1 26742.7 1174.47 5
2 5 -1 25122.2 1006.48 2
-2 5 -1 24589.6 1232.98 2
-2 5 -1 24385.1 929.801 6
2 -5 0 1894.68 303.204 5
-2 5 0 1726.22 235.807 6
-2 5 0 1994.12 365.067 2
-2 -5 0 1651.33 305.968 4
-2 -5 0 1740.17 307.271 5
2 5 0 1824.63 250.807 2
2 -5 1 25075.2 1113.24 5
-2 -5 1 27739 1193.5 5
-2 -5 1 26373.2 1218.37 4
2 5 1 25840.2 1045.8 2
-2 5 1 26997.5 1351.03 2
2 5 2 996.233 207.843 2
-2 5 2 750.304 248.079 2
-2 -5 2 610.961 203.805 5
-2 -5 2 826.596 221.11 4
2 -5 2 743.84 216.946 5
2 5 3 367.135 146.634 2
2 -5 3 346.666 141.084 5
-2 5 3 351.288 118.458 2
-2 -5 3 342.494 147.68 5
-2 -5 3 134.971 83.5011 4
2 5 4 1654.33 280.126 2
-2 -5 4 1931.82 317.646 5
-2 5 4 2153.95 392.097 2
-2 -5 4 1615.68 306.946 4
2 -5 4 2024.07 316.786 5
2 5 5 530.92 163.315 2
2 -5 5 562.76 180.931 5
-2 -5 5 616.855 186.163 5
2 5 5 458.765 140.931 1
-2 5 5 589.599 217.551 2
-2 -5 5 885.32 242.065 4
-2 -5 6 506.209 198.945 5
2 5 6 337.036 160.728 2
-2 -5 6 678.225 240.633 4
2 5 6 638.78 159.411 1
2 -5 6 262.927 122.418 5
2 5 7 876.566 197.241 1
2 -5 7 870.353 223.701 5
-2 -5 7 666.512 202.853 5
-2 -5 7 743.183 236.911 4
2 5 8 574.362 157.126 1
2 -5 8 754.697 215.524 5
-2 -5 8 474.808 226.536 4
-2 -5 8 968.41 253.475 5
2 -5 9 4404.43 482.906 5
-2 5 9 3882.83 441.166 1
-2 -5 9 3273.13 537.628 4
-2 -5 9 5063.61 546.803 5
2 5 9 4181.47 440.334 1
-2 -5 10 2354.54 385 5
-2 5 10 2074.93 333.689 1
2 -5 10 2660.74 379.592 5
-2 -5 10 2235.03 456.923 4
2 5 10 2332.79 346.796 1
-2 5 11 1127.57 263.654 1
-2 -5 11 1543.55 401.172 4
2 5 11 1725.24 336.382 1
-2 5 12 -5.04338 92.03 1
-2 -5 12 74.8837 159.696 4
2 5 12 220.833 135.72 1
-2 5 13 589.189 219.278 1
-2 -5 13 761.693 330.44 4
2 5 13 619.692 236.211 1
-2 6 -9 259.876 127.827 6
-2 -6 -9 731.038 250.767 5
2 -6 -9 937.87 280.067 5
-2 -6 -8 362.646 201.332 7
-2 6 -8 156.954 163.399 6
-2 6 -8 425.719 195.433 2
2 -6 -8 317.011 143.239 5
-2 -6 -8 439.98 135.217 5
-2 -6 -7 207.483 171.477 5
-2 6 -7 299.901 173.73 2
-2 6 -7 72.5498 107.918 6
2 -6 -7 -24.8311 124.433 5
-2 6 -6 137.993 105.485 6
2 -6 -6 130.632 132.011 5
-2 -6 -6 325.708 188.497 5
-2 6 -6 183.077 101.467 2
-2 6 -5 606.541 190.686 6
-2 6 -5 698.595 255.267 2
2 -6 -5 540.881 216.521 5
-2 -6 -5 322.635 161.431 5
-2 6 -4 -158.804 145.566 6
-2 6 -4 -259.252 181.172 2
-2 -6 -4 140.894 96.1843 5
2 -6 -4 32.4561 91.1581 5
-2 6 -3 354.841 188.489 2
2 -6 -3 600.149 212.524 5
-2 -6 -3 451.781 194.23 5
-2 6 -2 1482.23 332.243 2
2 -6 -2 1057.72 256.231 5
-2 -6 -2 1293.68 281.069 5
-2 6 -1 627.899 246.187 2
-2 -6 -1 590.99 208.605 5
2 -6 -1 606.18 237.707 5
2 -6 0 2010.03 363.978 5
-2 -6 0 1527.01 314.36 5
-2 6 0 2328.2 428.18 2
-2 6 1 1043.33 315.061 2
2 -6 1 347.798 173.173 5
-2 -6 1 503.797 182.274 5
-2 -6 1 624.632 222.143 4
2 -6 2 1678.65 323.235 5
-2 6 2 1746.04 382.93 2
-2 -6 2 1309.22 291.562 5
-2 -6 2 1672.5 343.233 4
-2 6 3 323.214 172.551 2
2 -6 3 509.597 203.944 5
-2 -6 3 342.587 184.597 5
-2 -6 3 443.568 187.843 4
2 -6 4 -104.132 134.201 5
-2 6 4 15.0745 118.354 2
-2 -6 4 -188.175 143.929 5
-2 -6 4 -44.799 114.614 4
-2 -6 5 383.44 208.299 4
2 -6 5 634.294 239.224 5
-2 6 5 87.858 132.199 2
-2 -6 5 115.827 108.512 5
-2 6 6 488.202 245.453 2
2 -6 6 444.21 180.159 5
-2 -6 6 353.111 185.584 5
-2 -6 6 186.389 156.665 4
-2 6 7 26.4836 154.558 2
2 -6 7 320.698 175.201 5
-2 -6 7 327.402 148.764 4
-2 -6 7 204.665 120.441 5
-2 6 8 386.693 188.312 2
2 -6 8 69.6437 113.921 5
-2 -6 8 694.325 233.716 5
-2 -6 9 835.546 280.022 5
2 -6 9 645.778 249.503 5
-2 6 9 560.359 244.161 2
2 -6 10 19.9799 145.658 5
-2 -6 10 65.5397 108.667 5
3 0 -17 27.2264 96.0895 3
-3 0 -17 85.1861 155.548 7
-3 0 -16 142.383 199.281 7
3 0 -16 23.6848 160.84 3
3 0 -15 261.896 160.325 7
-3 0 -15 35.1901 143.937 7
3 0 -15 3.88637 80.449 6
3 0 -15 214.96 138.675 3
-3 0 -14 102.327 105.109 6
3 0 -14 205.386 122.952 7
-3 0 -14 127.337 191.974 7
3 0 -14 361.745 159.759 6
3 0 -14 86.401 94.7545 3
-3 0 -13 210.377 157.355 7
3 0 -13 354.46 154.428 6
-3 0 -13 -187.659 133.729 6
3 0 -13 112.191 119.433 3
-3 0 -12 -73.9835 95.9894 6
3 0 -12 207.54 134.359 3
-3 0 -11 477.882 169.669 6
3 0 -11 335.311 170.95 3
-3 0 -11 521.915 172.759 2
-3 0 -10 -14.6078 65.5541 6
3 0 -10 57.1468 90.3103 3
-3 0 -10 71.0156 74.937 2
-3 0 -9 -55.2333 101.455 6
3 0 -9 31.055 90.7648 3
-3 0 -9 88.5159 79.9742 2
-3 0 -8 -14.308 58.0645 6
3 0 -8 61.6225 83.8207 3
-3 0 -8 -34.138 59.871 2
3 0 -7 4.45078 58.8763 3
-3 0 -7 -24.2612 39.6951 2
-3 0 -6 39.2904 37.8027 2
3 0 -6 97.9925 77.939 3
-3 0 -5 46.4672 56.6588 2
3 0 -5 91.8732 92.1581 3
3 0 -4 8.89336 60.0498 3
-3 0 -4 -65.351 45.8861 2
3 0 -3 79.7392 39.3671 7
-3 0 -3 11.7186 44.2361 3
3 0 -3 113.308 101.362 3
-3 0 -3 24.4354 27.4208 2
-3 0 -2 103.867 80.623 7
-3 0 -2 33.1005 32.58 2
-3 0 -2 136.399 85.1151 3
3 0 -2 140.875 83.3763 3
3 0 -2 79.2591 73.2109 4
3 0 -2 48.4931 21.9024 7
-3 0 -1 10.6515 25.6735 7
-3 0 -1 6.99385 27.0517 2
3 0 -1 96.0353 74.6752 3
-3 0 -1 59.8687 52.5089 3
-3 0 -1 63.1131 59.8984 4
3 0 -1 -13.0786 42.0786 4
3 0 0 36.4219 57.0839 3
-3 0 0 70.5137 75.386 3
-3 0 0 -27.4812 24.7801 7
-3 0 0 79.0268 55.598 2
-3 0 0 131.516 76.1551 4
3 0 0 -14.3088 44.8305 4
3 0 1 -19.4813 49.0618 3
-3 0 1 171.777 79.0495 3
3 0 1 13.3719 32.3026 2
-3 0 1 23.8859 22.3321 7
3 0 1 66.1768 53.7034 4
-3 0 1 80.8863 62.2262 4
3 0 2 38.906 49.5466 3
-3 0 2 129.065 67.8281 3
3 0 2 176.2 76.979 4
-3 0 2 18.0638 42.7552 4
3 0 2 39.1748 43.3703 2
3 0 3 21.1375 40.8313 3
3 0 3 1.94621 31.9458 2
3 0 3 23.9815 60.7201 4
-3 0 3 39.8958 45.9194 4
3 0 4 46.4478 65.6484 3
3 0 4 -21.1221 36.0125 2
-3 0 4 43.9443 58.4889 4
3 0 5 39.369 64.3772 3
3 0 5 77.2517 82.7205 1
3 0 6 56.4798 70.8873 1
-3 0 7 4.60763 53.5314 1
3 0 7 7.72581 40.6387 1
3 0 8 90.6269 66.1631 1
-3 0 8 -75.5023 87.6386 1
-3 0 9 61.7567 86.547 1
3 0 9 98.3162 75.7217 1
-3 0 10 52.5779 84.9779 1
3 0 10 -49.881 67.404 1
-3 0 11 344.688 166.566 1
3 0 11 375.796 166.299 1
-3 0 12 83.1774 140.527 1
3 0 12 300.061 151.236 1
3 0 13 -21.9857 82.2737 1
-3 0 13 -85.2488 92.2135 1
3 0 14 307.678 166.592 1
-3 0 14 114.297 91.3191 1
-3 0 15 28.8782 133.064 1
3 0 15 176.821 184.936 1
-3 0 16 7.7567 107.288 1
3 0 16 125.903 142.325 1
-3 0 17 -61.5566 133.513 1
3 0 17 157.115 110.157 1
-3 1 -18 519.563 219.63 6
3 1 -17 -231.092 183.103 6
-3 1 -17 73.7284 119.561 6
3 -1 -17 42.837 149.583 3
3 1 -17 -135.035 138.638 3
-3 -1 -17 -65.8283 138.576 7
-3 -1 -16 -29.4301 153.264 7
3 1 -16 311.947 184.875 6
3 -1 -16 60.4326 106.04 3
3 1 -16 174.665 174.022 3
-3 1 -16 -19.1572 135.744 6
3 -1 -15 839.743 249.118 3
-3 -1 -15 1153.79 334.306 7
3 1 -15 985.895 285.215 3
-3 1 -15 1180.26 267.364 6
-3 1 -15 1009.57 270.004 2
3 1 -15 1200.18 287.627 6
3 -1 -14 1733.11 346.715 3
-3 -1 -14 1616.84 354.55 7
3 1 -14 1726.16 342.542 3
3 -1 -14 1713.76 260.266 7
-3 1 -14 2050.81 347.972 6
3 1 -14 1475.71 298.288 6
-3 1 -14 2074.84 366.394 2
3 -1 -13 668.47 141.648 7
3 -1 -13 659.902 226.712 3
-3 1 -13 1000.98 253.752 6
-3 -1 -13 1329.26 293.777 7
-3 1 -13 1175.02 248.011 2
-3 -1 -12 1679.56 322.782 7
-3 1 -12 1046.09 229.081 6
3 -1 -12 1325 187.601 6
3 -1 -12 1541.92 289.702 3
3 -1 -12 1175.17 198.424 7
-3 1 -12 1269.99 251.619 2
3 -1 -11 8683.11 487.621 7
3 -1 -11 7740.76 420.719 6
3 -1 -11 8453.01 334.769 5
-3 1 -11 8764.99 593.476 2
-3 1 -11 8247.16 595.265 6
3 -1 -11 7607.03 612.873 3
-3 -1 -11 8594.24 629.798 7
3 -1 -10 1355.58 179.587 7
-3 1 -10 1509.19 234.612 2
3 -1 -10 1220.78 245.937 3
-3 1 -10 1531.08 249.193 6
3 -1 -10 1535.99 149.928 5
-3 -1 -10 1163.21 232.219 7
3 -1 -10 1336.83 172.129 6
3 -1 -9 3824.62 407.344 3
3 -1 -9 4352.49 302.812 7
3 1 -9 4111.57 261.28 5
-3 1 -9 3935.08 380.223 6
-3 1 -9 4326.92 380.205 2
-3 -1 -9 4246.31 407.824 7
-3 -1 -8 68.5235 80.7742 7
3 -1 -8 108.747 88.142 3
3 1 -8 194.307 122.065 3
-3 1 -8 154.752 65.4561 6
3 -1 -8 171.791 57.8088 7
-3 1 -8 198.33 116.451 2
3 -1 -7 2321.53 306.368 3
-3 1 -7 2371.79 262.911 6
-3 1 -7 2613.27 273.136 2
3 -1 -7 2527.2 194.01 7
3 1 -7 2083.95 264.987 3
-3 -1 -7 2380.13 268.495 7
-3 -1 -6 275.609 121.214 7
3 -1 -6 261.931 59.0327 7
-3 1 -6 239.708 107.912 6
3 -1 -6 492.633 140.899 3
3 1 -6 405.277 137.834 3
-3 1 -6 372.873 109.452 2
-3 1 -5 4187.17 317.777 6
3 1 -5 4003.85 343.548 3
-3 -1 -5 4120.61 324.95 7
3 -1 -5 4183.9 380.147 3
-3 1 -5 4164.06 323.565 2
3 -1 -5 4337.62 199.818 7
-3 -1 -5 4012.43 323.546 3
3 -1 -4 19162.5 396.484 7
-3 1 -4 18130.2 640.397 6
3 -1 -4 20334.2 819.423 3
-3 1 -4 18514.9 670.682 2
3 1 -4 17824 714.991 3
-3 -1 -4 19548.2 689.357 3
-3 -1 -4 19215 688.195 7
3 1 -3 11365.1 537.18 3
3 -1 -3 10735.5 563.455 3
-3 1 -3 11081.7 494.823 2
-3 1 -3 10680.5 466.268 6
3 1 -3 11239.6 446.553 7
-3 -1 -3 11577.6 497.369 3
-3 -1 -3 12396.9 531.396 7
3 1 -2 19050.6 569.637 7
-3 1 -2 19818.9 617.826 6
3 -1 -2 17560.2 701.408 3
-3 -1 -2 17328.2 598.886 3
3 1 -2 17620.5 645.614 3
-3 -1 -2 16593.4 641.863 4
3 -1 -2 19041.5 652.549 1
-3 1 -2 17815.1 641.52 2
-3 -1 -2 18123.2 629.841 7
-3 1 -1 1365.79 202.933 3
3 1 -1 1312.39 143.628 7
3 -1 -1 1349.53 187.788 3
-3 1 -1 1256.35 171.893 2
-3 -1 -1 1101.08 162.668 4
-3 -1 -1 1146.76 147.621 7
3 1 -1 1111.71 158.493 4
-3 -1 -1 1333.17 159.244 3
3 1 -1 1186.25 159.854 3
3 1 0 366378 4344.97 3
-3 -1 0 384901 4350.21 3
3 -1 0 370496 4593.29 3
-3 1 0 402679 4810.88 3
3 1 0 386122 4251.94 7
-3 -1 0 383500 4635.92 4
-3 1 0 382272 4507.58 2
3 1 0 389396 4679.75 4
3 -1 1 1182.22 135.652 6
-3 -1 1 1235.48 157.148 3
-3 -1 1 1308.33 149.249 7
-3 1 1 1372.36 200.639 3
3 1 1 1425.91 150.278 7
3 -1 1 1342.85 197.451 3
3 -1 1 1113.39 92.4308 4
-3 1 1 1382.36 115.196 4
-3 -1 1 1240.38 70.1994 2
3 1 1 1246.6 173.014 4
-3 -1 1 1672.36 226.896 4
3 1 1 1360.99 161.124 3
3 -1 2 19838.1 593.345 6
3 -1 2 17695 423.888 4
-3 -1 2 19024.4 740.553 4
-3 -1 2 18124.3 383.891 2
-3 1 2 16936.6 457.316 4
3 1 2 18083 568.784 7
3 1 2 17396.5 342.661 2
3 -1 2 18405.2 690.274 2
-3 -1 2 17913.9 616.31 3
3 -1 2 18813.3 719.511 3
3 1 2 19205.6 636.712 3
-3 1 2 18005.9 388.57 7
-3 1 3 11019.3 245.453 7
-3 -1 3 10758.7 550.99 4
-3 -1 3 11223.8 341.168 2
3 1 3 10982.2 306.646 2
3 -1 3 11510.9 559.458 3
3 1 3 10988.6 460.377 3
3 1 4 20765.7 737.566 1
3 1 4 17530.1 453.384 2
-3 -1 4 17786.6 716.428 4
-3 -1 4 18266.7 509.531 2
3 1 4 19139.8 615.654 3
3 -1 4 17904.1 722.047 3
3 1 5 3985.12 329.726 1
3 -1 5 3881.41 284.154 1
3 1 5 3900.99 222.886 2
-3 -1 5 3360.15 319.175 4
-3 1 5 4361.56 354.736 1
3 1 5 4125.97 289.197 3
3 -1 5 4017.78 345.127 3
3 -1 6 379.659 117.048 3
-3 1 6 249.156 97.314 1
-3 -1 6 296.702 130.131 4
3 -1 6 259.247 91.418 1
3 1 6 246.546 91.2473 1
3 1 7 2735.22 299.478 1
3 1 7 2242.77 186.481 5
-3 -1 7 2332.47 301.383 4
-3 1 7 2577.73 299.235 1
3 -1 7 2702.09 256.821 1
3 1 8 173.634 85.8683 1
-3 1 8 25.3206 75.7382 1
3 1 8 65.9247 45.7409 5
3 -1 8 87.3947 68.727 1
-3 -1 8 241.242 129.856 4
3 1 9 4583.02 278.148 5
-3 1 9 4239.52 425.729 1
-3 -1 9 3850.28 434.953 4
3 1 9 4770.01 409.769 1
3 -1 9 4496.43 360.651 1
3 -1 10 1535.85 149.845 5
-3 1 10 1159.84 224.375 1
-3 -1 10 1239.84 232.838 1
3 -1 10 1621.8 228.32 1
3 1 10 1395.39 237.558 1
3 -1 11 8413.07 339.296 5
-3 -1 11 8530.98 629.312 1
-3 1 11 8061.18 624.056 1
3 -1 11 9064.64 565.537 1
3 1 11 8973.16 609.1 1
3 1 12 1711.37 281.337 1
-3 -1 12 1413.23 262.045 1
3 -1 12 1645.28 257.801 1
-3 1 12 1618.73 300.959 1
3 1 13 991.345 231.598 1
3 -1 13 1249.49 232.343 1
-3 1 13 1078.47 251.823 1
-3 -1 13 747.02 231.896 1
-3 -1 14 1907.53 356.673 1
-3 1 14 1657.74 340.215 1
3 1 14 2106.99 345.795 1
3 -1 14 2397.47 346.304 1
3 -1 15 1104.31 272.833 1
-3 -1 15 1035.17 291.665 1
-3 1 15 1258.86 315.843 1
3 1 15 1228.55 283.489 1
-3 -1 16 27.3001 119.114 1
3 1 16 169.389 159.596 1
-3 1 16 122.07 228.742 1
3 -1 16 76.3161 119.98 1
-3 1 17 -2.88767 128.48 1
-3 -1 17 73.4714 105.556 1
3 1 17 38.4968 135.711 1
3 -1 17 123.879 128.998 1
3 -1 18 1067.39 324.137 1
-3 -2 -17 94.1827 139.626 7
3 2 -17 -136.412 173.006 6
-3 2 -17 5.4854 114.21 6
3 -2 -17 60.499 97.3882 3
-3 -2 -16 552.867 304.018 7
3 2 -16 316.342 213.427 6
-3 2 -16 234.707 201.165 6
3 -2 -16 97.8057 150.394 3
-3 2 -16 557.378 240.898 2
-3 -2 -15 1765.89 380.047 7
3 2 -15 1312.25 309.297 6
3 -2 -15 1510.55 362.011 3
-3 2 -15 1485.3 338.287 6
-3 2 -15 1327.16 319.456 2
-3 -2 -14 1015.14 301.4 7
3 -2 -14 502.891 199.123 3
-3 2 -14 1183.22 281.806 6
-3 2 -14 892.977 263.912 2
-3 2 -13 999.247 260.465 6
3 -2 -13 690.045 220.245 3
-3 -2 -13 1366.41 309.788 7
-3 2 -13 774.069 216.746 2
-3 -2 -12 496.08 198.37 7
-3 2 -12 510.646 182.495 2
-3 2 -12 251.03 150.311 6
3 -2 -12 421.52 171.978 7
3 -2 -12 90.6213 130.993 3
3 -2 -11 5296.03 440.193 7
-3 2 -11 5094.15 497.877 6
3 -2 -11 5215.15 534.578 3
3 -2 -11 5170.64 323.292 5
-3 2 -11 5762.34 513.223 2
-3 -2 -11 5020.33 522.852 7
3 -2 -10 2508.29 358.949 3
-3 2 -10 2903.58 363.351 2
-3 2 -10 3370.15 389.255 6
3 -2 -10 2984.41 314.637 7
3 -2 -10 2745.19 237.769 5
-3 -2 -10 3060.48 392.321 7
-3 2 -9 1253.48 239.465 6
3 -2 -9 962.854 164.73 7
3 -2 -9 1409.64 171.447 5
3 -2 -9 1221.98 254.262 3
-3 2 -9 2006.29 300.023 2
-3 -2 -9 1372.55 263.38 7
3 -2 -8 11199.6 485.385 5
3 -2 -8 9530.05 490.336 7
-3 2 -8 10264.8 619.927 6
3 -2 -8 10588.6 695.802 3
-3 2 -8 11025.2 642.804 2
-3 -2 -8 10616.9 674.894 7
3 -2 -7 2725.43 255.718 7
3 -2 -7 2682.14 338.653 3
3 2 -7 2908.27 258.937 2
-3 2 -7 3049.09 320.06 6
3 -2 -7 3211 260.039 5
-3 2 -7 2931.33 325.711 2
-3 -2 -7 2215.28 316.019 7
3 -2 -6 1613.95 220.352 7
-3 -2 -6 1346.67 245.112 7
-3 2 -6 1076.17 186.934 2
-3 -2 -6 1189.17 169.379 3
-3 2 -6 1503.39 222.636 6
3 -2 -6 1893.82 210.409 5
3 2 -6 1044.18 193.752 3
3 2 -6 1209.42 165.982 2
3 -2 -6 1240.43 228.315 3
-3 -2 -5 3124.65 335.263 7
3 -2 -5 3140.8 333.871 3
3 -2 -5 3315.33 257.425 7
-3 2 -5 3146.99 304.214 6
3 2 -5 3612.94 329.525 3
3 2 -5 3072.53 231.873 2
-3 2 -5 3457.22 355.356 2
3 -2 -5 3746.13 281.792 5
-3 -2 -5 3247.53 265.799 3
-3 -2 -4 1633.01 235.987 7
3 2 -4 1680.45 221.665 3
3 -2 -4 1265.53 84.4101 6
-3 2 -4 1639.13 211.556 6
-3 2 -4 1554.49 230.754 2
3 -2 -4 1276.94 208.479 3
3 2 -4 1633.91 155.289 2
-3 -2 -4 1459.57 162.068 3
3 -2 -3 3582.4 331.082 3
-3 -2 -3 3750.27 338.394 7
-3 -2 -3 3959.26 246.493 3
3 -2 -3 4062.85 184.014 6
-3 2 -3 4196.11 310.923 6
3 2 -3 3961.02 315.833 3
3 2 -3 3843.61 208.049 2
-3 2 -3 4090.35 364.884 2
3 2 -2 13691.4 554.472 3
3 -2 -2 14382.7 403.201 6
-3 2 -2 14232.6 543.328 6
-3 -2 -2 14226.6 692.659 4
3 -2 -2 12530.6 613.435 3
-3 -2 -2 13823.4 661.941 7
3 2 -2 12964.8 346.425 2
3 -2 -2 13896.7 522.536 1
-3 -2 -2 14222.6 454.233 3
-3 2 -2 13602.8 660.06 2
-3 2 -1 20751.8 626.247 6
3 -2 -1 20772.9 547.989 6
-3 -2 -1 19680.2 524.968 3
3 2 -1 19566.6 626.486 3
-3 -2 -1 20529.9 843.128 4
3 2 -1 19691.1 387.723 2
3 -2 -1 20011.5 610.539 1
-3 2 -1 20617.7 816.108 2
-3 -2 -1 19561.7 778.351 7
3 -2 -1 19382.5 764.497 3
3 2 0 93525.1 1501.77 3
-3 -2 0 92066.1 1834.38 7
-3 -2 0 93865.3 1401.3 3
3 -2 0 93110.3 1454.04 6
-3 2 0 93703.1 1466.78 6
-3 -2 0 97605.2 2013.55 4
3 -2 0 93874.7 1492.75 1
3 2 0 92246.3 1084.45 2
-3 2 0 92868 1922.21 2
3 -2 0 92936.7 1834.75 3
-3 -2 1 20931.9 783.871 7
3 2 1 21144.8 596.76 3
-3 -2 1 21707.3 911.895 4
-3 2 1 19673.6 827.024 2
3 2 1 18332 377.762 2
-3 -2 1 21238.3 497.616 2
3 -2 1 20621 789.299 3
-3 2 2 16030 580.457 7
-3 -2 2 14856.4 768.953 4
-3 -2 2 12941.3 421.449 2
3 -2 2 14126.7 654.307 3
3 2 2 14744.6 461.335 3
3 2 3 3603.72 312.69 1
-3 2 3 4049.05 270.543 7
-3 -2 3 3956.26 395.77 4
3 -2 3 3777.53 171.4 4
-3 -2 3 3968.99 246.878 2
3 2 3 3668.23 211.593 3
3 -2 3 3928.45 346.94 3
3 2 4 1317.62 115.891 2
3 -2 4 1888.52 180.99 1
-3 2 4 1510.77 206.218 1
3 2 4 1412.28 203.881 1
-3 -2 4 1586.91 175.103 2
-3 -2 4 1513.56 254.345 4
-3 2 4 1330.46 157.373 7
3 -2 4 1676.62 236.13 3
3 -2 5 3743.12 257.37 1
3 2 5 3295.31 310.77 1
3 2 5 3085.68 199.028 2
-3 -2 5 3058.35 348.899 4
-3 2 5 3480.95 331.813 1
3 -2 5 3430.69 264.907 5
3 -2 5 3710.54 351.291 3
-3 2 5 3444.67 231.802 7
-3 2 6 1480.97 182.702 7
-3 2 6 1220.34 201.722 1
3 -2 6 1261.71 164.71 5
3 2 6 1469.32 222.396 1
-3 -2 6 1010.43 209.054 4
3 -2 6 1188.85 150.042 1
3 -2 7 3145.57 255.763 1
3 -2 7 2980.9 252.796 5
-3 -2 7 2348.03 324.783 4
3 2 7 2926.35 323.226 1
-3 2 7 2977.22 340.83 1
3 2 8 11262.8 642.441 1
3 -2 8 11131 486.892 5
-3 -2 8 9510.96 660.778 4
-3 2 8 10922.5 660.759 1
3 -2 8 11443.8 514.594 1
-3 2 9 1599.7 264.583 1
3 -2 9 1349.24 189.508 1
3 -2 9 1376.15 173.546 5
3 2 9 1268.63 229.284 1
-3 -2 9 1583.69 294.547 4
3 -2 10 3161.03 264.451 5
-3 2 10 3227.28 395.787 1
-3 -2 10 2999.83 409.643 4
3 -2 10 3401.19 310.721 1
3 2 10 3336.26 375.448 1
3 -2 11 4927.66 326.037 5
-3 -2 11 4752.65 552.933 4
-3 2 11 5232.85 520.933 1
3 -2 11 6138.01 444.285 1
3 2 11 5912.74 516.096 1
3 -2 12 483.415 144.458 1
3 2 12 205.03 130.375 1
-3 2 12 301.483 135.349 1
-3 -2 12 278.097 155.733 4
3 2 13 1105.92 253.42 1
-3 2 13 732.383 240.147 1
3 -2 13 966 208.741 1
-3 -2 13 672.531 256.611 4
3 2 14 1261.6 279.168 1
-3 2 14 1243.31 293.34 1
-3 -2 14 869.999 277.118 4
3 -2 14 1259.19 245.567 1
3 2 15 1829.1 354.658 1
-3 2 15 1506.46 352.578 1
3 -2 15 1768.97 304.372 1
-3 -2 15 1053.13 301.526 4
-3 2 16 384.143 233.045 1
3 -2 16 368.225 163.62 1
3 2 16 183.755 157.111 1
-3 -2 16 189.131 201.329 4
3 3 -16 601.501 270.585 6
-3 -3 -15 256.251 233.086 7
3 3 -15 653.01 279.679 6
-3 3 -15 597.669 255.804 6
3 -3 -15 767.217 284.787 3
-3 3 -15 725.863 218.644 2
-3 3 -14 218.301 184.366 6
-3 3 -14 383.04 199.335 2
3 -3 -14 492.828 247.417 3
-3 -3 -14 127.405 155.104 7
-3 -3 -13 734.97 260.632 7
-3 3 -13 739.121 253.682 6
-3 3 -13 599.368 195.986 2
3 -3 -13 869.684 301.611 3
-3 3 -12 355.732 190.424 6
-3 -3 -12 12.3454 156.478 7
3 -3 -12 -36.7829 132.399 3
-3 3 -12 72.0053 130.14 2
-3 -3 -11 677.877 234.599 7
3 -3 -11 726.082 257.862 3
3 -3 -11 898.875 225.302 7
-3 3 -11 704.794 246.345 6
3 3 -11 562.899 183.724 2
-3 3 -11 1041.94 253.903 2
3 -3 -10 2760.71 394.254 3
-3 -3 -10 2055.91 388.773 7
-3 3 -10 2546.72 372.565 6
3 -3 -10 2651.19 285.276 5
3 -3 -10 2446.63 329.582 7
3 3 -10 2719.55 326.099 2
-3 3 -10 2979.03 396.135 2
-3 -3 -9 1752.03 322 7
-3 3 -9 1765.47 311.069 6
3 -3 -9 1873.79 245.105 5
3 3 -9 1995.37 272.351 2
3 -3 -9 1754.87 321.127 3
-3 3 -9 1792.83 316.961 2
3 -3 -9 1750.84 266.757 7
-3 3 -8 713.867 210.686 6
3 -3 -8 326.55 111.462 7
3 -3 -8 255.863 126.43 3
3 -3 -8 230.274 94.159 5
-3 -3 -8 527.311 156.931 7
3 3 -8 414.59 110.842 2
-3 3 -8 380.971 146.538 2
-3 -3 -7 480.396 158.599 7
-3 3 -7 757.008 201.875 6
3 -3 -7 761.624 164.902 7
-3 3 -7 347.158 129.395 2
3 -3 -7 503.696 159.648 3
3 -3 -7 515.599 119.083 5
3 3 -7 600.664 127.956 2
-3 -3 -6 166.288 57.014 3
-3 -3 -6 754.05 204.157 7
-3 3 -6 273.733 145.483 2
3 -3 -6 165.618 100.164 3
3 -3 -6 194.911 77.2904 5
3 3 -6 255.925 88.9371 2
-3 3 -5 108.838 116.695 6
-3 3 -5 210.745 119.81 2
3 -3 -5 8.25733 47.1064 3
-3 -3 -5 47.7461 29.8933 3
3 -3 -5 -14.5567 55.6017 5
-3 -3 -5 6.70193 78.504 7
3 3 -5 17.2967 48.1928 3
3 3 -5 -5.97551 43.2694 2
3 3 -4 1799.62 224.661 3
-3 3 -4 1525.71 263.697 2
-3 -3 -4 1830.12 308.76 7
3 -3 -4 1708.64 229.533 5
-3 -3 -4 1865.03 253.201 5
-3 3 -4 1835.7 240.261 6
3 3 -4 1859.18 188.596 2
3 -3 -4 1759.97 243.546 3
3 -3 -3 258.444 111.566 5
3 3 -3 374.615 96.4246 2
-3 -3 -3 471.4 175.724 7
-3 3 -3 390.039 132.82 6
3 -3 -3 330.787 119.238 3
-3 3 -3 481.26 176.863 2
3 3 -3 409.469 126.082 3
-3 -3 -3 336.91 135.607 5
-3 3 -2 1508.57 253.925 2
-3 -3 -2 1377.21 254.966 7
3 3 -2 1430.31 178.977 3
-3 3 -2 1784.27 219.27 6
3 -3 -2 1395.59 219.933 3
-3 -3 -2 1362.34 215.283 5
3 -3 -2 1757.09 234.13 5
-3 -3 -2 1465.95 254.086 4
3 3 -2 1488.11 156.342 2
-3 -3 -1 241.141 124.871 7
3 3 -1 266.546 63.8021 2
3 -3 -1 388.126 119.865 3
-3 3 -1 232.327 83.8489 6
-3 -3 -1 285.956 97.6316 5
3 -3 -1 345.292 127.643 5
3 3 -1 257.873 73.886 3
-3 3 -1 324.973 120.372 2
-3 -3 -1 229.131 115.704 4
3 -3 -1 453.947 92.4824 1
-3 -3 0 613.43 181.55 7
3 3 0 267.583 73.974 2
-3 3 0 586.174 127.71 6
3 3 0 254.48 68.9502 3
-3 -3 0 405.886 136.514 5
3 -3 0 370.166 125.746 5
3 -3 0 168.748 75.108 3
-3 3 0 194.021 108.849 2
3 -3 0 268.977 68.759 1
-3 -3 0 271.446 119.678 4
3 -3 1 687.77 168.969 3
3 3 1 274.796 52.3385 3
3 3 1 279.046 73.5738 2
3 -3 1 414.523 133.224 5
3 -3 1 241.758 59.5275 1
-3 -3 1 515.274 164.063 5
-3 3 1 463.198 145.505 2
-3 -3 1 708.414 217.643 4
-3 3 1 469.251 75.0182 4
-3 3 1 450.905 102.564 6
3 -3 2 1662.21 232.573 3
-3 3 2 2091.64 198.051 6
3 3 2 1323.98 190.99 1
3 -3 2 1469.69 216.256 5
-3 -3 2 1404.29 216.947 5
-3 3 2 1390.23 151.597 4
-3 3 2 1602.39 273.813 2
3 -3 2 1377.04 122.751 1
-3 -3 2 1753.04 290.958 4
3 3 2 1524.28 165.706 2
-3 -3 2 1415.6 180.572 2
3 -3 3 601.198 157.83 3
3 3 3 605.615 146.689 1
3 -3 3 301.651 116.509 5
-3 -3 3 239.539 101.623 5
-3 3 3 522.91 112.451 4
3 -3 3 256.794 57.1934 4
-3 -3 3 443.421 201.223 4
3 3 3 544.44 128.4 2
3 -3 3 382.187 68.5543 1
3 -3 4 1835.35 133.602 1
3 3 4 1674.03 224.22 1
-3 -3 4 1934.43 251.936 5
3 -3 4 1936.19 237.905 5
3 -3 4 1764.43 162.213 4
-3 -3 4 1691.6 303.344 4
3 -3 4 1992.82 271.058 3
3 -3 5 63.3505 65.6406 5
-3 -3 5 -9.3855 70.5916 4
3 -3 5 -1.27142 26.2638 1
3 -3 5 -81.3217 47.4655 4
-3 3 5 37.0861 52.0653 1
3 3 5 133.919 77.1726 1
3 3 6 158.292 85.8412 1
-3 3 6 123.371 74.9006 1
3 -3 6 800.163 176.719 5
3 -3 6 230.915 61.3848 1
-3 -3 6 553.413 206.371 4
3 -3 6 232.834 85.283 4
3 -3 7 488.931 86.4513 1
-3 3 7 653.764 166.911 1
3 -3 7 447.612 125.723 5
3 3 7 495.893 124.021 1
-3 -3 7 681.791 203.215 4
3 -3 7 416.845 117.659 4
3 -3 8 269.302 72.6658 5
3 -3 8 279.917 74.6615 1
-3 3 8 214.632 88.148 1
3 3 8 398.024 140.263 1
-3 -3 8 276.911 160.794 4
3 -3 8 504.452 146.08 4
3 -3 9 1597.08 229.543 5
-3 3 9 1724.7 286.757 1
3 3 9 1609.21 273.349 1
3 -3 9 1978.44 289.627 4
-3 -3 9 1372.19 289.683 4
3 -3 9 1853.84 194.182 1
3 -3 10 2704.12 295.281 5
-3 3 10 2556.03 356.553 1
-3 -3 10 2337.54 397.714 4
3 -3 10 2350.53 236.297 1
3 3 10 2719.75 356.576 1
3 -3 11 1105.31 202.499 5
-3 3 11 684.985 223.244 1
3 3 11 923.536 229.07 1
-3 -3 11 611.647 255.704 4
3 3 12 188.301 136.387 1
-3 3 12 114.475 133.036 1
-3 -3 12 240.383 205.601 4
3 3 13 769.658 229.08 1
-3 3 13 949.586 269.304 1
-3 -3 13 361.194 180.904 4
3 3 14 447.481 186.446 1
-3 3 14 216.048 177.289 1
-3 -3 14 212.35 202.439 4
-3 3 15 708.563 256.243 1
3 3 15 695.622 245.951 1
-3 -3 15 764.926 295.076 4
-3 -4 -14 474.059 250.727 7
-3 4 -13 202.73 159.468 2
-3 4 -13 171.368 178.354 6
-3 -4 -13 119.462 165.545 7
3 4 -13 13.4154 107.096 2
-3 -4 -12 -148.857 171.883 7
-3 4 -12 37.7862 114.858 6
-3 4 -12 203.558 151.151 2
3 4 -12 292.197 149.514 2
-3 -4 -11 2325.57 422.462 7
-3 4 -11 2271.6 387.534 2
-3 4 -11 2075.8 379.945 6
3 4 -11 2291.78 338.155 2
3 -4 -10 762.045 224.946 7
-3 4 -10 936.895 254.926 2
-3 -4 -10 1076.99 294.844 7
3 -4 -10 1011.73 207.976 5
3 4 -10 937.047 213.648 2
-3 4 -10 1138.85 281.215 6
-3 -4 -9 2040.13 388.81 7
3 -4 -9 2378.23 322.807 5
-3 4 -9 2451.33 395.45 2
3 -4 -9 2132.35 334.584 7
3 4 -9 1985.84 288.486 2
-3 4 -9 2139.49 353.402 6
-3 4 -8 82.8617 104.154 2
-3 -4 -8 324.528 177.494 7
-3 4 -8 492.841 172.777 6
3 -4 -8 389.465 135.035 3
3 -4 -8 188.608 112.777 5
3 4 -8 585.668 152.874 2
3 -4 -7 1864.01 281.213 5
-3 -4 -7 1704.59 326.672 7
-3 4 -7 1466.71 290.965 2
3 4 -7 1710.46 236.352 2
-3 4 -7 1451.44 258.871 6
3 -4 -7 1622.01 251.828 3
-3 -4 -6 266.911 170.346 7
-3 4 -6 547.628 189.378 2
3 -4 -6 681.374 184.144 5
-3 -4 -6 477.126 153.282 5
3 4 -6 614.203 157.69 3
3 4 -6 461.233 136.633 2
-3 4 -6 628.397 173.59 6
3 -4 -6 588.754 152.427 3
-3 4 -5 -2.47423 114.273 2
-3 -4 -5 167.823 157.891 7
-3 4 -5 35.07 92.3598 6
3 -4 -5 253.567 111.01 3
3 -4 -5 -136.885 110.111 5
-3 -4 -5 74.9649 117.827 5
3 4 -5 31.8865 73.4401 3
3 4 -5 110.624 73.5157 2
3 4 -4 1784.65 235.675 3
-3 -4 -4 2033.98 347.856 7
-3 4 -4 1716.15 296.907 2
-3 4 -4 1945.22 264.554 6
3 -4 -4 2293.78 300.359 5
-3 -4 -4 2212.17 323.375 5
3 4 -4 1999.77 234.052 2
3 -4 -4 2229.9 287.002 3
3 4 -3 1367.83 193.316 3
-3 -4 -3 1631.66 267.371 5
3 4 -3 1360.95 187.81 2
-3 -4 -3 1302.51 285.277 7
3 -4 -3 1456.51 234.315 3
-3 4 -3 1420.39 236.626 6
3 -4 -3 1383.47 241.237 5
-3 4 -3 1730.37 289.317 2
3 4 -2 542.879 118.912 2
-3 -4 -2 447.235 188.336 7
3 -4 -2 673.685 158.119 3
-3 4 -2 1359.11 204.158 6
-3 4 -2 928.035 232.25 2
3 -4 -2 1001.72 188.451 5
3 4 -2 743.178 127.272 3
-3 -4 -2 743.44 200.256 5
-3 -4 -2 530.229 178.412 4
3 4 -1 4455.13 324.635 1
3 4 -1 4255.88 267.903 3
3 -4 -1 5134.74 443.538 5
-3 -4 -1 5273.78 483.564 5
-3 -4 -1 4929.04 513.037 4
3 4 -1 4306.98 317.309 2
-3 4 -1 4186.7 470.276 2
3 -4 -1 4887.43 411.085 3
-3 4 -1 4664.83 366.232 6
3 4 0 11637.2 533.866 1
-3 4 0 11241.4 530.493 6
3 -4 0 12430.9 683.323 5
-3 -4 0 12957.7 738.318 5
-3 -4 0 12658.1 818.915 4
3 4 0 11623.1 522.548 2
-3 4 0 12018.3 816.448 2
3 -4 0 12916.8 668.877 3
3 4 1 4641.82 346.782 1
-3 4 1 5213.6 330.91 6
3 -4 1 5052.2 436.69 5
-3 -4 1 5315.81 479.92 5
-3 -4 1 4212.11 474.835 4
3 4 1 4252.28 322.945 2
-3 4 1 5242.47 550.267 2
3 -4 1 5076.17 425.077 3
3 -4 2 731.456 178.082 3
-3 4 2 667.883 109.376 6
3 4 2 681.55 142.639 2
3 -4 2 714.921 163.315 5
-3 -4 2 869.757 214.793 5
-3 4 2 741.45 204.428 2
3 4 2 698.478 142.38 1
-3 -4 2 583.341 188.281 4
-3 -4 3 1409.64 264.753 5
3 4 3 1485.88 214.45 1
3 -4 3 1454.77 236.992 5
3 4 3 1286.43 201.117 2
-3 4 3 1632.46 337.368 2
-3 4 3 1261.78 129.808 6
3 -4 3 1767.78 267.828 3
-3 -4 3 1161.44 269.012 4
3 4 4 2168.58 270.14 1
-3 -4 4 2464.57 329.953 5
3 -4 4 1868.94 266.856 5
-3 -4 4 2190.63 358.364 4
3 4 4 2503.42 282.539 2
3 -4 5 18.0579 87.1014 5
-3 -4 5 155.63 134.202 5
-3 -4 5 103.431 111.839 4
3 4 5 94.5943 81.8206 1
-3 4 6 417.789 145.441 1
3 -4 6 618.131 167.929 5
-3 -4 6 793.19 191.254 5
-3 -4 6 197.021 127.423 4
3 4 6 483.319 135.244 1
3 4 7 1928.64 279.438 1
-3 4 7 1459.73 264.028 1
3 -4 7 1936.72 289.405 5
-3 -4 7 2288 331.891 5
-3 -4 7 1589.78 330.391 4
3 -4 8 464.524 147.807 5
-3 4 8 355.015 144.902 1
3 4 8 175.331 69.3179 1
-3 -4 8 206.726 146.321 4
3 -4 9 2501.85 328.344 5
3 4 9 2286.09 325.362 1
-3 4 9 1945.55 317.938 1
-3 -4 9 1928.71 400.974 4
-3 4 10 864.907 242.738 1
3 4 10 698.607 200.663 1
3 -4 10 1024.09 227.65 5
-3 -4 10 874.844 294.464 4
-3 4 11 2306.86 367.614 1
3 -4 11 2265.71 322.993 5
-3 -4 11 2769.8 498.773 4
3 4 11 2813.92 404.926 1
3 4 12 80.2107 136.399 1
-3 4 12 127.184 124.055 1
-3 -4 12 96.7306 198.878 4
3 4 13 89.6168 110.715 1
-3 4 13 -84.7177 93.6067 1
3 4 14 304.212 160.451 1
-3 4 14 494.782 221.315 1
-3 -4 14 207.301 229.08 4
-3 -5 -11 2476.86 504.765 7
-3 5 -11 2386.55 440.094 6
-3 -5 -10 5557.07 722.597 7
-3 5 -10 6847.7 698.391 6
3 -5 -10 6295.39 578.712 5
-3 5 -10 7411.79 727.696 2
-3 5 -9 -16.2756 143.993 2
-3 5 -9 240.202 152.882 6
3 -5 -9 28.9706 118.859 5
-3 -5 -9 201.653 222.429 7
3 5 -9 137.802 102.586 2
-3 -5 -8 4433.9 633.249 7
-3 5 -8 4284.18 518.889 6
3 -5 -8 5049.68 521.066 5
3 5 -8 4340.19 426.553 2
-3 5 -8 5712 629.913 2
3 5 -7 525.596 164.617 2
-3 5 -7 567.561 173.68 2
-3 5 -7 730.051 214.251 6
-3 -5 -7 517.206 181.184 7
3 -5 -7 706.113 204.148 5
-3 -5 -7 404.376 192.794 5
3 5 -6 254.723 123.68 2
-3 -5 -6 29.2578 110.417 7
-3 5 -6 397.879 211.907 2
-3 5 -6 -28.1138 114.278 6
-3 -5 -6 -28.9378 124.186 5
3 -5 -6 113.073 99.6699 5
3 5 -5 809.184 185.698 2
-3 -5 -5 1011.73 282.492 7
-3 5 -5 1065.7 262.215 6
3 -5 -5 851.418 215.869 5
-3 5 -5 685.658 232.318 2
-3 -5 -5 991.13 244.6 5
-3 -5 -4 212.084 144.68 5
-3 -5 -4 179.912 170.053 7
-3 5 -4 -106.784 109.78 6
-3 5 -4 381.433 188.433 2
3 -5 -4 343.929 157.613 5
-3 5 -3 6098.59 499.219 6
3 -5 -3 7125.59 610.834 5
-3 -5 -3 7557.03 654.786 5
-3 5 -3 5986.04 609.026 2
3 -5 -2 2622.56 379.225 5
-3 5 -2 2038.75 281.745 6
-3 5 -2 2080.47 369.202 2
-3 -5 -2 2463.03 375.541 5
-3 5 -1 6861.66 479.876 6
3 -5 -1 7333.23 607.785 5
-3 -5 -1 7790.06 659.719 5
-3 -5 -1 6834.9 667.155 4
-3 5 -1 7768.11 713.77 2
-3 5 0 1468.89 304.578 2
3 -5 0 1604.73 289.176 5
-3 -5 0 1570.93 298.253 5
-3 -5 0 1352.27 282.382 4
3 -5 1 7374.19 606.397 5
-3 -5 1 7784.43 651.532 5
-3 -5 1 6957.52 662.4 4
-3 5 1 6898.04 695.694 2
-3 5 2 1682.39 352.728 2
-3 -5 2 2032 338.143 5
-3 -5 2 1264.14 302.078 4
3 -5 2 1895.52 319.898 5
3 -5 3 6468.22 566.599 5
-3 -5 3 7307.57 637.186 5
-3 -5 3 6603.29 656.466 4
-3 5 3 6593.75 715.841 2
3 -5 4 81.5557 97.511 5
-3 -5 4 407.37 168.161 5
-3 5 4 505.891 247.25 2
3 5 4 105.474 85.963 1
-3 -5 4 210.309 132.936 4
-3 -5 5 1117.75 275.606 5
3 -5 5 779.929 192.298 5
3 5 5 646.561 169.893 1
-3 5 5 1296.28 318.081 2
-3 -5 5 1254.6 300.266 4
3 5 6 54.4794 111.457 1
3 -5 6 94.1452 118.877 5
-3 -5 6 124.893 119.378 5
-3 5 6 57.3664 118.863 2
-3 -5 6 -61.6448 121.482 4
3 5 7 651.311 171.677 1
3 -5 7 445.945 164.185 5
-3 -5 7 869.831 275.819 5
-3 -5 7 551.951 206.404 4
3 -5 8 5154.22 522.134 5
-3 -5 8 4969.03 643.132 4
3 5 8 4962.42 478.211 1
3 -5 9 56.5384 97.039 5
-3 -5 9 228.198 230.965 4
3 5 9 208.38 151.869 1
3 -5 10 7018.54 633.881 5
-3 -5 10 6557.53 792.862 4
3 5 10 7460.47 637.017 1
-3 5 11 2505.8 401.229 1
3 5 11 2209.5 359.33 1
-3 -5 11 1989.62 440.913 4
-3 5 12 60.3938 122.93 1
-3 -5 12 47.0548 130.557 4
-3 5 13 139.196 130.597 1
3 -6 -9 1698.21 349.689 5
-3 6 -8 468.857 215.046 6
3 -6 -8 244.4 153.688 5
-3 6 -7 250.805 175.79 2
-3 6 -7 517.546 214.627 6
3 -6 -7 276.108 125.114 5
-3 -6 -7 459.096 236.273 5
-3 6 -6 286.93 173.834 6
3 -6 -6 -118.437 126.75 5
-3 -6 -6 124.195 152.776 5
-3 6 -5 564.049 229.606 2
-3 6 -5 226.335 179.718 6
3 -6 -5 258.662 160.854 5
-3 -6 -5 272.095 160.574 5
3 -6 -4 136.699 120.673 5
-3 -6 -4 295.335 179.092 5
-3 6 -4 -73.4427 117.791 2
-3 6 -3 1288.52 324.9 2
3 -6 -3 727.978 232.486 5
-3 -6 -3 1052.7 284.501 5
-3 6 -2 521.689 237.795 2
3 -6 -2 530.024 198.829 5
-3 -6 -2 386.371 207.988 5
-3 6 -1 -27.7779 141.109 2
3 -6 -1 195.816 157.92 5
-3 -6 -1 455.383 214.694 5
-3 -6 0 1180.98 288.553 5
-3 6 0 1356.28 339.745 2
3 -6 0 1302.83 301.534 5
-3 6 1 241.841 230.402 2
3 -6 1 245.701 159.121 5
-3 -6 1 355.376 193.457 5
-3 -6 1 294.57 206.132 4
3 -6 2 696.165 231.939 5
-3 -6 2 1188.54 287.736 5
-3 -6 2 776.489 250.768 4
-3 6 2 821.243 266.763 2
-3 6 3 1057.19 320.205 2
3 -6 3 1230.8 285.204 5
-3 -6 3 1102.1 304.91 5
-3 -6 3 752.423 264.162 4
3 -6 4 186.058 117.978 5
-3 6 4 202.373 185.381 2
-3 -6 4 496.269 203.801 5
-3 -6 4 268.544 178.483 4
3 -6 5 -28.7908 94.2744 5
-3 6 5 175.109 186.44 2
-3 -6 5 196.852 133.647 5
-3 -6 5 -84.7746 145.713 4
3 -6 6 290.322 165.996 5
-3 6 6 -105.022 110.302 2
-3 -6 6 -244.501 168.459 5
-3 -6 6 85.1143 117.817 4
3 -6 7 728.937 237.164 5
-3 -6 7 335.372 220.069 5
-3 6 7 59.6705 159.778 2
-3 -6 7 163.959 134.979 4
3 -6 8 225.658 161.815 5
-3 -6 8 249.37 141.708 4
3 -6 9 1243.87 286.103 5
-3 -6 9 1478.04 387.807 4
3 -6 10 916.847 236.652 5
-4 0 -17 1280.99 362.167 7
4 0 -16 1128.58 314.05 3
-4 0 -16 1524.29 359.808 7
-4 0 -15 697.515 213.543 7
4 0 -15 575.568 225.778 3
-4 0 -14 226.293 180.591 7
4 0 -14 17.713 92.069 6
4 0 -14 61.9774 114.333 3
4 0 -13 2092.23 348.889 3
-4 0 -13 2494.14 398.435 7
-4 0 -12 20223.7 1026.16 7
-4 0 -12 17592.2 863.408 2
-4 0 -11 251.49 162.071 7
4 0 -11 -3.10263 80.8967 3
-4 0 -11 133.61 104.414 2
4 0 -10 17861.8 938.791 3
-4 0 -10 21429.9 855.161 2
4 0 -9 6737.99 557.184 3
-4 0 -9 8359.66 497.168 2
4 0 -8 10032.5 676.068 3
-4 0 -8 11138.4 544.414 2
4 0 -7 231.195 111.821 3
-4 0 -7 378.092 97.835 2
4 0 -6 2725.06 340.574 3
-4 0 -6 2237.91 215.731 2
4 0 -5 6384.85 505.863 3
-4 0 -5 6053.46 338.912 2
4 0 -5 5602.28 214.05 7
-4 0 -4 190.225 89.6049 7
4 0 -4 139.533 27.5902 7
-4 0 -4 218.545 73.9254 2
4 0 -4 273.126 123.985 3
-4 0 -3 6467.08 327.597 7
-4 0 -3 6076.66 308.267 2
4 0 -3 6427.65 473.34 3
-4 0 -2 -14.0493 32.175 2
4 0 -2 24.8989 50.3421 3
-4 0 -2 97.4129 70.882 4
4 0 -2 126.825 83.0152 4
-4 0 -1 65703 1310.01 4
4 0 -1 71465.7 1387.15 4
-4 0 -1 70344.9 1218.28 2
4 0 -1 68760.4 1558.07 3
-4 0 -1 72803.5 1138.04 7
-4 0 0 2815.53 256.022 4
4 0 0 2810.45 244.8 4
-4 0 0 2999.61 229.824 2
-4 0 0 3143.22 197.968 7
4 0 0 2629.9 282.784 3
-4 0 1 71676.5 1047.77 7
4 0 1 74003.5 1461.47 4
-4 0 1 79328.5 1578.13 4
4 0 1 72402.8 1621.36 3
-4 0 2 74.4839 47.5768 7
4 0 2 106.592 65.8717 3
4 0 2 82.4142 57.9495 2
4 0 2 63.5616 68.8813 4
-4 0 2 0.95474 56.8654 4
4 0 3 6044.89 380.608 4
-4 0 3 6698.65 406.509 4
4 0 3 6000.62 353.891 2
4 0 3 6624.07 464.943 3
4 0 4 295.686 113.006 3
4 0 4 223.384 66.0551 2
-4 0 4 226.779 92.5507 4
-4 0 5 6275.08 421.928 4
4 0 5 6290.32 448.986 3
-4 0 6 2332.19 269.348 4
4 0 6 2442.37 283.063 3
4 0 6 2325.04 274.38 1
4 0 7 366.886 128.141 1
4 0 7 222.814 79.8434 3
-4 0 7 278.622 112.811 4
4 0 8 10911.7 610.113 1
4 0 9 7894.56 532.033 1
4 0 10 21383.1 915.326 1
-4 0 11 -18.7503 113.871 1
4 0 11 45.8091 82.9707 1
-4 0 12 15802.1 959.191 1
4 0 12 17830.6 897.812 1
-4 0 13 2047.92 369.869 1
4 0 13 1913.3 300.165 1
-4 0 14 48.048 93.9878 1
4 0 14 122.461 117.171 1
-4 0 15 160.433 150.751 1
4 0 15 837.743 248.572 1
4 0 16 1033.17 265.13 1
-4 0 16 608.775 261.428 1
4 0 17 694.348 219.69 1
-4 0 17 760.075 293.449 1
4 -1 -17 -84.904 115.417 3
-4 1 -17 -466.247 261.19 6
-4 1 -16 211.785 158.854 6
4 1 -16 191.252 140.495 6
-4 -1 -16 -75.5853 158.382 7
4 -1 -16 -48.1479 109.567 3
4 1 -16 -108.939 138.643 3
-4 1 -16 132.263 132.113 2
-4 -1 -15 -18.4485 138.554 7
4 1 -15 317.606 185.142 6
4 1 -15 174.204 132.905 3
-4 1 -15 -146.076 137.468 6
4 -1 -15 147.241 134.533 3
-4 1 -15 -22.874 79.668 2
-4 1 -14 1289.33 283.011 6
4 -1 -14 1123.57 290.23 3
4 1 -14 1665.64 338.047 3
-4 -1 -14 1677.7 346.922 7
-4 1 -14 1003.42 250.211 2
-4 -1 -13 691.479 244.999 7
4 -1 -13 292.014 167.035 3
4 1 -13 266.848 146.646 3
-4 1 -13 384.668 182.329 6
-4 1 -13 311.704 141.997 2
-4 1 -12 278.734 144.781 6
4 -1 -12 7.14107 75.8086 3
4 1 -12 186.494 120.272 3
-4 -1 -12 85.0823 147.608 7
-4 1 -12 114.538 105.567 2
4 1 -11 4003.13 447.53 3
4 -1 -11 4911.81 353.192 7
-4 1 -11 4607.52 465.714 6
-4 1 -11 4736.45 438.553 2
-4 -1 -11 4868.16 504.937 7
4 -1 -11 3854.49 470.612 3
4 -1 -10 14366.4 874.128 3
4 -1 -10 16353.3 600.892 7
-4 1 -10 14951.9 811.219 6
4 1 -10 12987.4 786.546 3
-4 1 -10 15865.1 772.208 2
-4 -1 -10 15958.6 863.761 7
4 -1 -9 10560.7 735.337 3
4 1 -9 10860.9 692.059 3
-4 1 -9 11073.3 669.262 6
-4 1 -9 11791.7 638.131 2
-4 -1 -9 11106.5 677.631 7
4 -1 -9 11791.3 462.09 7
-4 -1 -8 121.149 79.2095 7
4 -1 -8 55.4037 39.1594 7
-4 1 -8 -31.6512 74.3147 6
4 -1 -8 47.0551 97.1364 3
4 1 -8 112.933 125.275 3
-4 1 -8 26.2079 66.409 2
4 -1 -7 4830.08 225.274 7
4 -1 -7 5198.27 497.416 3
-4 1 -7 4652.34 385.932 6
-4 -1 -7 4825.34 401.459 7
4 1 -7 4467.52 426.969 3
-4 1 -7 5265.44 399.006 2
4 -1 -6 11950.1 732.114 3
4 1 -6 10812.9 653.158 3
-4 1 -6 10053.1 558.276 6
-4 -1 -6 10580.5 591.945 7
-4 1 -6 11517.9 578.769 2
4 -1 -6 9661.32 277.694 7
4 1 -5 467.783 118.13 7
-4 1 -5 458.815 132.81 2
-4 1 -5 312.212 79.9233 6
-4 -1 -5 598.723 140.709 7
4 -1 -5 802.829 202.361 3
4 1 -5 573.651 153.441 3
-4 -1 -5 391.775 84.2391 2
4 1 -4 22780.2 673.176 7
4 1 -4 22874.2 913.633 3
-4 -1 -4 21964.3 782.59 7
4 -1 -4 22419.6 954.943 3
-4 -1 -4 22386.1 500.363 2
-4 1 -4 23218.7 796.026 2
4 -1 -3 6377.93 477.127 3
4 1 -3 6447.67 455.587 3
-4 -1 -3 6554.4 215.691 2
-4 1 -3 5943.15 392.16 2
4 1 -3 6464.74 337.793 7
-4 -1 -3 6754.55 415.191 7
4 -1 -2 18069.4 796.247 3
-4 -1 -2 19709.9 709.773 7
-4 -1 -2 19366.9 748.424 3
4 1 -2 19471.4 600.01 7
4 1 -2 19596.1 771.591 3
-4 -1 -2 19704.9 759.503 4
-4 -1 -2 19511.1 331.151 2
-4 1 -2 20182.1 741.14 2
4 1 -1 28014.2 904.849 3
-4 -1 -1 29762.3 933.846 3
-4 -1 -1 28902.5 834.426 7
-4 -1 -1 28295.1 938.956 4
-4 1 -1 30897.4 935.46 2
4 1 -1 29978.3 765.733 7
4 -1 -1 26604.4 957.932 3
-4 -1 0 37040.9 926.958 7
-4 -1 0 38260.4 1070.13 3
4 1 0 36770.4 1040.16 3
4 1 0 39995.9 890.415 7
-4 1 0 38309 742.661 4
-4 -1 0 39271.2 1162.28 4
4 -1 0 39644.5 734.371 4
-4 1 0 39790.6 1103.28 2
4 -1 0 36412.7 1137.5 3
-4 -1 1 30037.3 821.809 7
-4 -1 1 30899.3 474.943 2
-4 -1 1 32582.6 1094.72 4
-4 1 1 33419.3 765.605 4
4 -1 1 29960.3 656.768 4
4 -1 1 29592.1 1030.63 3
4 1 1 30165.4 939.038 3
4 -1 2 20843.9 561.487 4
-4 -1 2 20576.3 427.215 2
-4 -1 2 20690.8 866.71 4
-4 1 2 18709.5 567.66 4
4 1 2 17231.5 403.501 2
4 -1 2 21155.1 863.28 3
4 1 2 21229.6 801.622 3
-4 -1 3 6612 270.068 2
-4 -1 3 6209.82 463.464 4
-4 1 3 6325.02 333.556 4
4 1 3 6760.31 265.759 2
4 -1 3 6088.17 309.993 4
4 -1 3 6391.75 481.457 3
4 1 3 6912.46 441.034 3
4 -1 4 20404.8 606.404 4
-4 -1 4 22680.8 582.941 2
-4 -1 4 21810.2 881.007 4
-4 1 4 21938.5 697.952 4
4 1 4 22662.8 570.427 2
4 -1 4 23613.9 923.76 3
4 1 4 22664.7 795.563 3
4 1 5 674.915 142.777 3
4 -1 5 665.594 172.903 3
4 1 5 399.446 91.4955 2
4 1 5 559.944 151.517 1
-4 -1 5 533.69 149.859 4
4 1 6 11176.1 622.039 1
4 -1 6 11270.8 574.333 1
-4 -1 6 9949.92 612.359 4
4 1 6 11517.9 568.152 3
4 -1 6 10859.2 635.266 3
4 -1 7 5287.74 394.283 1
4 1 7 5108 427.276 1
-4 -1 7 4958.34 452.939 4
4 -1 7 5152.64 446.538 3
-4 1 8 -76.5918 123.874 1
4 -1 8 15.0121 61.1209 1
4 1 8 -16.8705 98.0474 1
-4 -1 8 55.058 78.116 4
4 1 9 11406.9 672.51 1
-4 1 9 11646.9 737.101 1
-4 -1 9 11364.8 748.164 4
4 -1 9 11742.7 621.949 1
4 -1 10 15010.5 729.273 1
4 1 10 15900.6 809.602 1
-4 -1 10 13795.9 867.699 4
-4 1 10 14743.3 868.852 1
4 1 11 5298.9 488.719 1
-4 -1 11 4588.11 529.204 4
-4 1 11 4785.77 506.683 1
4 -1 11 4882.5 436.175 1
-4 1 12 245.448 179.17 1
4 -1 12 325.994 138.79 1
4 1 12 224.622 107.908 1
-4 -1 12 481.738 204.099 4
-4 1 13 829.489 252.63 1
4 -1 13 237.047 78.307 1
4 1 13 541.905 184.911 1
-4 -1 13 593.142 237.886 4
4 -1 14 1462.91 279.215 1
-4 1 14 1282.37 314.772 1
4 1 14 1241 261.666 1
-4 -1 14 1025.01 295.454 4
4 -1 15 -46.5613 123.466 1
-4 1 15 99.9869 144.289 1
4 1 15 -142.469 118.453 1
-4 -1 15 -41.1184 102.401 4
4 -1 16 202.335 169.11 1
4 1 16 -83.0385 87.654 1
-4 1 16 236.242 148.981 1
-4 -1 16 125.36 149.361 4
4 -1 17 -44.7711 90.5423 1
4 2 -17 443.731 211.729 6
4 -2 -17 -203.56 186.863 3
-4 -2 -16 1332.77 392.282 7
4 2 -16 817.716 295.502 6
-4 2 -16 593.548 227.109 6
4 -2 -16 624.779 224.438 3
-4 2 -16 1075.76 322.097 2
-4 2 -15 716.936 248.622 6
-4 -2 -15 739.73 335.333 7
4 -2 -15 454.491 201.839 3
4 2 -15 393.173 201.828 3
-4 2 -15 505.367 224.391 2
-4 -2 -14 140.755 196.371 7
-4 2 -14 -185.815 110.079 6
4 -2 -14 123.957 112.133 3
4 2 -14 45.9299 104.34 3
-4 2 -14 127.636 144.895 2
4 -2 -13 7057.76 707.721 3
4 2 -13 6281.46 617.818 3
-4 2 -13 7463.46 642.726 2
-4 2 -13 7705.19 682.896 6
-4 -2 -13 7169.24 713.203 7
-4 -2 -12 590.901 234.741 7
-4 2 -12 877.128 228.657 6
4 -2 -12 788.199 255.499 3
4 2 -12 613.725 211.979 3
-4 2 -12 695.385 208.07 2
4 -2 -11 5431.98 596.212 3
4 2 -11 4536.1 494.99 3
-4 2 -11 5504.22 550.258 6
4 -2 -11 5536.01 363.005 5
-4 2 -11 6219.48 544.206 2
-4 -2 -11 5741.81 578.742 7
-4 -2 -10 1952.93 346.168 7
-4 2 -10 1872.81 299.22 2
-4 2 -10 1671.1 282.014 6
4 -2 -10 1813.71 215.508 7
4 -2 -10 1909.85 348.294 3
4 2 -10 1409.57 279.213 3
4 -2 -10 1688.71 199.015 5
4 -2 -9 30735.2 1332.16 3
-4 2 -9 28124.3 1114.54 6
4 -2 -9 28995.4 860.166 5
4 2 -9 26017.8 1097.81 3
-4 2 -9 31013.9 1166.18 2
4 -2 -9 27133.6 823.302 7
-4 -2 -9 27657.6 1187.05 7
4 -2 -8 1414.17 177.188 7
-4 -2 -8 1829.25 304.445 7
4 -2 -8 1755.99 211.132 5
4 -2 -8 1117.12 89.8128 6
-4 2 -8 1683.8 262.322 2
-4 2 -8 2087.37 294.621 6
4 -2 -8 1719.86 309.142 3
4 2 -8 1570.63 276.711 3
4 -2 -7 164.916 115.556 3
4 2 -7 -67.4498 84.4038 3
-4 2 -7 101.49 94.7027 2
-4 2 -7 198.124 114.367 6
-4 -2 -7 154.012 101.257 7
4 -2 -7 19.4555 36.0988 7
-4 -2 -6 1401.81 247.71 7
-4 2 -6 1134.82 217.965 2
4 -2 -6 717.81 83.5555 6
-4 2 -6 1382.81 226.585 6
4 -2 -6 1536.99 276.402 3
4 2 -6 1206 233.39 3
4 -2 -5 708.671 90.8233 6
-4 2 -5 707.732 175.694 2
-4 -2 -5 619.347 131.539 3
-4 2 -5 828.11 163.986 6
4 -2 -5 536.221 157.689 3
4 2 -5 573.788 150.225 3
-4 -2 -5 592.885 164.8 7
4 -2 -4 70.3779 41.6866 6
-4 2 -4 61.7767 95.04 6
-4 2 -4 162.729 87.344 2
-4 -2 -4 63.9137 54.6881 3
4 -2 -4 63.4581 52.7666 3
4 2 -4 30.1486 52.0713 3
-4 -2 -4 153.882 93.276 7
4 -2 -3 3810.85 374.973 3
-4 -2 -3 4073.53 381.069 7
-4 -2 -3 4553.25 417.984 4
4 2 -3 4416.63 374.334 3
4 -2 -3 4071.21 221.193 6
-4 2 -3 4259.18 329.522 6
-4 2 -3 4225.62 392.191 2
-4 -2 -3 4069.99 312.093 3
-4 -2 -2 9731.65 581.503 7
-4 -2 -2 10160.9 484.087 3
4 2 -2 10236.9 541.909 3
4 -2 -2 9938.75 381.132 6
-4 2 -2 10446.2 510.896 6
4 -2 -2 9229.27 580.252 3
-4 -2 -2 10416.9 630.616 4
-4 2 -2 11347.3 645.097 2
-4 -2 -1 210938 3260.65 7
-4 -2 -1 215560 2864.57 3
4 -2 -1 213356 2677.87 6
4 -2 -1 212840 3352.74 3
4 2 -1 212538 3004.6 3
-4 -2 -1 222126 3506.45 4
-4 2 -1 222300 3430.5 2
4 2 0 60243.8 1315.05 3
-4 -2 0 59755.5 1220.59 3
-4 -2 0 59973.6 1490.32 7
-4 -2 0 65067.5 1715.4 4
-4 2 0 61595.8 1613.72 2
4 -2 0 60339.9 1555.13 3
-4 -2 1 222660 3196.59 7
-4 -2 1 217811 2813.12 3
-4 -2 1 240930 3671.96 4
-4 2 1 227441 3465.56 2
4 -2 1 221495 3361.88 3
4 2 1 230841 2947.22 3
-4 2 2 11184.1 474.811 7
-4 -2 2 11997.3 742.379 4
-4 2 2 9294.39 307.895 4
-4 -2 2 9945.62 321.957 2
4 -2 2 10481.9 629.652 3
4 2 2 11770 530.095 3
-4 2 3 4597.79 275.234 7
4 -2 3 3440.23 165.616 4
-4 -2 3 4406.79 451.512 4
4 2 3 3858.37 143.089 2
-4 -2 3 4339.24 245.737 2
4 -2 3 4574.23 414.578 3
4 2 3 4593.5 308.148 3
4 2 4 28.8435 21.4309 2
-4 2 4 70.2545 50.2023 7
4 2 4 31.2628 46.0653 3
4 -2 4 -50.2364 85.632 3
-4 -2 4 -40.8804 53.1639 2
-4 -2 4 -9.02421 80.0979 4
4 2 4 -6.48917 74.7968 1
4 2 5 697.14 121.13 3
4 2 5 522.995 73.6484 2
4 -2 5 640.936 125.176 1
4 -2 5 419.377 136.238 3
-4 -2 5 797.532 203.159 4
4 2 5 590.03 148.774 1
-4 2 5 1046.91 129.826 7
4 2 6 1341.85 242.405 1
4 -2 6 1545.43 260.94 3
4 2 6 1173.84 129.306 2
-4 -2 6 855.262 210.664 4
4 -2 6 1177.08 170.465 1
4 -2 7 238.124 98.3424 1
4 2 7 121.224 93.1461 1
-4 -2 7 40.2508 99.2411 4
4 -2 8 1801.76 224.825 1
-4 2 8 1902.47 301.496 1
4 -2 8 1792.11 219.472 5
4 2 8 1511.82 257.328 1
-4 -2 8 1445.54 285.292 4
4 2 9 30598.4 1163.98 1
4 -2 9 30179 883.587 5
-4 -2 9 28306.2 1275.63 4
-4 2 9 30996.2 1259.37 1
4 -2 9 30299.2 963.653 1
-4 2 10 2160.26 342.384 1
4 -2 10 1790.4 215.88 5
4 -2 10 1662.39 228.027 1
-4 -2 10 1824.85 343.978 4
4 2 10 2136.06 309.67 1
4 -2 11 5377.86 367.678 5
4 2 11 5712.92 526.803 1
-4 -2 11 5715.73 615.377 4
-4 2 11 5239.51 552.392 1
4 -2 11 5883.17 455.747 1
-4 2 12 505.413 212.866 1
4 -2 12 924.852 188.517 1
4 2 12 825.933 218.673 1
-4 -2 12 440.961 220.406 4
-4 -2 13 6722.63 734.382 4
-4 2 13 7180.8 694.37 1
4 -2 13 8885.45 603.995 1
4 2 13 7808.13 664.032 1
4 -2 14 79.3822 112.87 1
-4 -2 14 -80.9911 105.561 4
4 -2 15 508.225 174.733 1
4 2 15 640.551 212.974 1
-4 2 15 440.382 212.294 1
-4 -2 15 356.249 216.62 4
-4 -3 -15 752.391 303.044 7
4 -3 -15 695.883 304.328 3
4 3 -15 249.228 177.831 3
-4 -3 -14 436.464 266.935 7
-4 3 -14 570.364 235.046 6
4 -3 -14 597.36 256.688 3
4 3 -14 124.91 82.9967 3
-4 3 -14 436.491 208.555 2
-4 3 -13 1329.06 299.361 2
-4 -3 -13 903.104 280.019 7
-4 3 -13 1162.84 292.586 6
4 -3 -13 1400.86 357.776 3
4 3 -13 950.266 276.854 3
-4 3 -12 827.593 236.268 2
-4 -3 -12 644.609 249.564 7
-4 3 -12 602.341 225.04 6
4 3 -12 643.431 204.331 3
4 -3 -12 702.79 236.876 3
-4 3 -11 97.1372 112.589 2
-4 -3 -11 23.5109 127.158 7
-4 3 -11 475.464 198.924 6
4 -3 -11 276.255 180.62 3
4 3 -11 258.523 144.768 3
-4 3 -10 2599.54 374.665 2
-4 3 -10 2597.75 386.024 6
4 -3 -10 2677.14 298.684 5
4 3 -10 2114.53 336.755 3
-4 -3 -10 2515.66 409.489 7
4 -3 -10 2436.51 410.084 3
-4 -3 -9 848.184 226.908 7
-4 3 -9 759.283 198.276 6
4 -3 -9 768.452 226.956 3
4 -3 -9 546.257 138.148 5
4 3 -9 1002.27 221.146 3
-4 3 -9 924.371 228.52 2
4 -3 -9 602.945 160.803 7
-4 -3 -8 164.601 129.243 7
-4 3 -8 99.232 132.351 2
-4 3 -8 -3.06381 116.822 6
4 -3 -8 -7.84745 85.1185 3
4 -3 -8 -12.8925 78.4781 5
4 3 -8 73.7233 89.1121 3
4 -3 -7 2696.62 362.215 3
4 3 -7 2350.5 310.715 3
-4 3 -7 2849.14 347.254 6
4 -3 -7 3788.7 348.887 5
-4 -3 -7 3419.46 420.044 7
4 3 -7 2842.7 276.94 2
-4 3 -7 3035.07 388.025 2
4 -3 -6 6838.74 552.052 3
4 3 -6 6379.2 504.759 3
-4 -3 -6 6158.1 578.21 7
-4 3 -6 7058.68 519.64 6
4 -3 -6 7586.86 492.893 5
4 3 -6 6539.62 376.538 2
-4 3 -6 7792.97 614.208 2
-4 -3 -5 1073.21 245.689 7
-4 3 -5 1280.06 220.993 6
-4 3 -5 1638.99 302.84 2
4 -3 -5 1021.47 209.499 3
4 -3 -5 1566.54 228.56 5
4 3 -5 1266.41 230.692 3
4 3 -5 1247.11 152.339 2
-4 -3 -4 4460.9 476.438 7
-4 -3 -4 4664.29 257.954 3
-4 3 -4 4424.05 378.106 6
4 -3 -4 4832.67 399.882 5
4 3 -4 4544.08 396.982 3
4 3 -4 4564.65 267.08 2
-4 3 -4 4969.26 477.412 2
4 -3 -4 4623.9 428.935 3
-4 -3 -3 4273.49 456.012 7
4 3 -3 3874.81 350.111 3
-4 3 -3 4038.11 348.61 6
4 -3 -3 4570.15 383.91 5
-4 -3 -3 4239.52 228.528 3
4 3 -3 4160.91 226.622 2
-4 3 -3 4024.41 427.913 2
4 -3 -3 3984.96 393.074 3
4 3 -2 13263.5 619.273 3
-4 3 -2 12990.1 604.04 6
4 -3 -2 15180.1 689.162 5
-4 -3 -2 13372.9 788.105 7
-4 -3 -2 14817.5 853.364 4
4 3 -2 12499.5 363.057 2
-4 3 -2 12929.8 773.52 2
4 -3 -2 13763.2 739.442 3
-4 -3 -1 26627 1103.09 7
-4 3 -1 26653.3 837.211 6
4 -3 -1 26305.6 926.901 5
-4 -3 -1 28508.5 1199.45 4
4 3 -1 25301.2 498.036 2
-4 3 -1 26388.4 1116.27 2
4 3 -1 26785.9 831.615 3
4 -3 -1 27166.6 1053.69 3
-4 -3 0 653.934 176.357 7
4 -3 0 634.025 154.973 3
-4 3 0 402.94 85.4239 6
4 3 0 505.367 112.229 3
4 -3 0 615.96 149.268 5
-4 3 0 536.964 162.985 2
4 3 0 506.943 58.5403 2
-4 -3 0 535.489 160.922 4
4 -3 1 25943.2 902.785 5
-4 -3 1 28156.6 1237.66 4
4 -3 1 26522.3 746.053 1
4 3 1 25844.9 488.572 2
-4 3 1 27830.1 1201.85 2
4 -3 1 28531.6 1092.24 3
4 3 1 28557.9 754.927 3
4 -3 2 13367.9 625.203 5
-4 -3 2 14392.9 872.484 4
4 3 2 12327.4 345.715 2
-4 -3 2 14000.2 507.077 2
-4 3 2 13258.8 824.343 2
4 -3 2 13737.7 748.582 3
4 3 2 13243 432.308 3
4 3 3 4402.78 388.171 1
4 -3 3 4627.26 372.239 5
-4 -3 3 4474.96 493.232 4
-4 -3 3 4198.78 291.552 2
4 3 3 3932.5 232.166 2
4 3 3 4267.64 219.096 3
4 -3 3 4436.99 422.492 3
4 3 4 4768.57 414.669 1
4 -3 4 4925.13 297.486 1
4 -3 4 4864.43 372.957 5
4 3 4 4184.34 201.798 2
-4 -3 4 4666.26 507.058 4
4 -3 4 4922.81 455.401 3
4 3 5 1515.1 234.993 1
4 -3 5 1539.97 169.93 1
4 -3 5 1672.72 231.944 5
4 -3 5 1223.8 132.229 4
4 -3 5 1545.61 279.855 3
-4 -3 5 1392.89 285.866 4
4 3 6 6495.17 506.313 1
4 -3 6 6607.64 446.22 5
-4 -3 6 6462.19 600.131 4
4 -3 6 6058.37 335.784 4
4 -3 6 7514.38 371.795 1
4 -3 6 6964.22 563.77 3
4 3 7 2953.2 345.763 1
4 -3 7 3621.68 335.613 5
-4 -3 7 3146.11 429.958 4
4 -3 7 3145.19 275.764 4
4 -3 7 3618.15 267.302 1
4 3 8 -104.278 80.5861 1
-4 3 8 -35.5873 91.5599 1
4 -3 8 -62.9948 60.1327 5
4 -3 8 57.8988 52.3543 1
-4 -3 8 23.6422 146.173 4
4 -3 8 132.947 97.9611 4
-4 3 9 622.843 159.37 1
4 -3 9 761.456 131.441 1
4 -3 9 794.915 169.574 5
-4 -3 9 889.958 256.116 4
4 3 9 431.749 147.383 1
4 -3 10 2784.46 309.982 5
-4 3 10 2986.9 411.755 1
4 3 10 2500.93 344.96 1
-4 -3 10 2784.64 456.184 4
-4 3 11 240.811 167.174 1
4 3 11 163.431 119.373 1
4 -3 11 -60.1146 57.9208 5
-4 -3 11 183.301 175.38 4
-4 3 12 722.089 235.414 1
4 3 12 997.265 258.372 1
-4 -3 12 609.118 260.044 4
-4 3 13 998.884 288.769 1
4 3 13 1484.35 306.028 1
-4 -3 13 970.993 311.651 4
-4 3 14 358.107 202.009 1
4 3 14 748.192 242.415 1
-4 -3 14 429.822 293.694 4
-4 3 15 274.083 161.87 1
4 4 -14 -17.2411 136.792 3
-4 -4 -13 118.75 146.288 7
-4 4 -13 -18.6056 118.065 6
4 4 -13 90.6305 104.538 3
-4 4 -12 2302.93 412.1 2
-4 4 -12 2111.84 405.491 6
-4 -4 -12 1615.92 363.55 7
4 4 -12 1738.93 331.854 3
-4 4 -11 645.441 231.073 2
-4 4 -11 607.438 238.854 6
4 4 -11 511.678 182.778 3
-4 -4 -11 284.052 132.753 7
-4 4 -10 3455.38 474.447 6
4 -4 -10 2912.77 364.221 5
4 4 -10 2175.71 346.185 3
-4 -4 -10 2860.36 476.951 7
4 4 -10 3132.01 366.623 2
-4 4 -10 3747.95 506.075 2
-4 -4 -9 1000.71 282.409 7
-4 4 -9 1345.48 301.653 2
-4 4 -9 1270.16 281.181 6
4 4 -9 900.564 219.033 3
4 -4 -9 1417.6 300.262 3
4 -4 -9 1184.47 230.171 5
4 4 -9 1469.91 250.981 2
-4 -4 -8 3.93345 125.297 7
-4 4 -8 -142.471 144.546 2
-4 4 -8 367.099 187.516 6
4 -4 -8 112.891 104.751 3
4 -4 -8 64.9162 103.748 5
4 4 -8 160.401 105.806 3
4 4 -8 169.48 96.5661 2
4 -4 -7 -167.711 119.133 5
-4 -4 -7 -131.99 158.797 7
-4 4 -7 204.572 145.365 2
-4 4 -7 133.989 120.432 6
4 -4 -7 46.8501 73.2951 3
4 4 -7 136.163 120.981 3
4 4 -7 90.2793 86.7207 2
-4 -4 -6 239.467 222.787 7
-4 4 -6 451.986 179.582 2
4 -4 -6 41.8664 92.0931 3
4 -4 -6 215.583 120.8 5
4 4 -6 56.4047 53.8812 3
4 4 -6 106.188 59.1953 2
-4 -4 -5 444.939 226.607 7
4 -4 -5 240.683 130.841 3
-4 4 -5 513.346 210.314 2
-4 4 -5 584.549 183.244 6
4 -4 -5 382.514 168.492 5
4 4 -5 439.277 160.423 3
4 4 -5 299.212 106.432 2
-4 -4 -4 3890.18 491.887 7
4 4 -4 3716.36 364.203 3
-4 4 -4 4157.36 398.063 6
4 -4 -4 4046.9 416.289 5
4 4 -4 3791.78 279.409 2
-4 4 -4 3729.81 473.688 2
4 -4 -4 4027.06 417.077 3
4 4 -3 94.1286 67.7115 2
-4 -4 -3 -38.508 118.919 7
4 -4 -3 108.375 88.9151 3
-4 4 -3 137.653 101.07 6
-4 4 -3 44.6363 88.3719 2
4 -4 -3 224.676 124.451 5
4 4 -3 206.961 110.242 3
4 4 -2 20373.3 759.865 3
-4 -4 -2 19647.7 1075.1 7
-4 4 -2 19835.5 815.15 6
4 -4 -2 21349.9 944.124 5
-4 -4 -2 21006 1125.69 4
4 4 -2 19490.6 589.217 2
-4 4 -2 19599 1059.54 2
4 -4 -2 21192.5 958.804 3
-4 4 -1 16522.7 711.21 6
4 -4 -1 18042.9 862.749 5
-4 -4 -1 17780.4 1025.67 4
4 4 -1 16653.8 523.458 2
-4 4 -1 17806 1017.98 2
4 -4 -1 17936.2 879.465 3
4 -4 0 26659.4 1045.55 5
-4 4 0 26122.7 852.058 6
-4 -4 0 25733.9 1247.12 4
-4 4 0 26932.7 1284.52 2
4 -4 0 27207.4 1096.09 3
4 4 1 16045.4 722.603 1
-4 4 1 16130.3 620.983 6
4 -4 1 17494.9 843.961 5
-4 -4 1 17888 1046.75 4
-4 4 1 18241.2 1074.79 2
4 -4 1 17567.9 878.179 3
4 4 2 20290.9 842.238 1
4 -4 2 21172.5 921.886 5
-4 -4 2 21260.7 1150.37 4
-4 4 2 22596.3 1217.72 2
4 -4 2 21261.6 981.487 3
4 -4 3 -76.1746 99.5743 3
4 4 3 -6.83779 67.5103 1
4 -4 3 131.268 119.18 5
-4 4 3 2.11039 120.154 2
-4 -4 3 15.9633 106.242 4
4 4 4 4277.08 399.993 1
4 -4 4 4024.59 400.445 5
-4 -4 4 3517.94 482.159 4
-4 4 4 4383.99 532.654 2
4 -4 4 4085.45 436.976 3
4 4 5 493.172 178.718 1
4 -4 5 235.264 136.656 5
-4 -4 5 477.416 220.761 4
-4 -4 6 -52.9634 101.685 4
4 -4 6 -175.617 128.779 5
4 4 7 -77.4935 96.0065 1
4 -4 7 -18.4344 63.6339 5
-4 -4 7 38.5897 121.151 4
4 -4 8 -40.191 107.374 5
-4 -4 8 196.298 156.704 4
4 4 8 -164.672 117.463 1
-4 4 9 1294.78 270.174 1
4 -4 9 1548.65 268.458 5
4 4 9 947.785 219.435 1
-4 -4 9 1396.75 355.697 4
-4 4 10 2747.81 410.91 1
4 -4 10 2926.15 359.728 5
-4 -4 10 2599.48 476.127 4
4 4 10 3254.68 425.465 1
-4 4 11 593.615 214.917 1
4 4 11 679.529 193.039 1
4 -4 11 748.892 192.166 5
-4 -4 11 874.411 292.341 4
-4 4 12 1620.87 355.154 1
4 4 12 1745.97 332.074 1
-4 -4 12 1905.94 432.015 4
4 4 13 50.5516 118.425 1
-4 4 13 61.6199 136.849 1
-4 -4 13 88.5973 172.52 4
-4 5 -10 2730.14 466.756 2
-4 -5 -10 2568.61 516.992 7
-4 5 -10 2069.52 401.413 6
4 -5 -10 2598.34 392.35 5
-4 5 -9 679.472 246.331 2
-4 -5 -9 441.097 273.572 7
-4 5 -9 961.957 299.137 6
4 -5 -9 421.244 182.468 5
-4 -5 -8 347.656 232.852 7
-4 5 -8 355.082 162.146 2
-4 5 -8 644.86 221.709 6
4 -5 -8 384.81 168.019 5
-4 -5 -7 -63.5449 130.993 7
-4 5 -7 -72.6298 148.811 2
-4 5 -7 216.857 142.516 6
4 -5 -7 -47.7016 81.8083 5
-4 -5 -6 -15.3211 125.284 7
-4 5 -6 -43.0462 86.1132 2
-4 5 -6 -35.6615 91.0707 6
4 -5 -6 49.0454 84.9817 5
-4 -5 -5 -106.81 146.391 7
-4 5 -5 203.778 131.436 6
-4 5 -5 283.028 165.831 2
4 -5 -5 316.137 119.894 5
-4 -5 -4 1895.28 373.993 7
-4 5 -4 1962.41 305.025 6
-4 5 -4 1807.59 348.552 2
4 -5 -4 2463.65 383.98 5
-4 5 -3 745.46 187.504 6
-4 5 -3 819.569 251.295 2
4 -5 -3 897.088 239.461 5
-4 5 -2 506.769 153.5 6
-4 5 -2 476.685 180.682 2
4 -5 -2 847.219 234.391 5
4 -5 -1 160.001 105.209 3
-4 -5 -1 205.204 117.217 5
-4 5 -1 94.9535 99.8706 2
4 -5 -1 109.705 101.375 5
-4 -5 -1 257.801 178.669 4
4 -5 0 1335.5 249.269 3
-4 5 0 1252.25 302.368 2
4 -5 0 1577.97 293.366 5
-4 -5 0 1332.61 302.033 5
-4 -5 0 1650.98 340.758 4
4 -5 1 220.841 120.127 3
4 -5 1 255.292 140.135 5
-4 -5 1 360.97 169.017 5
-4 -5 1 37.8999 148.158 4
-4 5 1 68.3494 96.8384 2
4 -5 2 360.933 160.701 3
4 -5 2 167.37 124.587 5
-4 5 2 550.549 243.175 2
-4 -5 2 396.733 150.615 5
-4 -5 2 610.746 253.47 4
4 -5 3 870.608 232.045 5
-4 5 3 836.581 248.066 2
-4 -5 3 583.887 206.09 4
4 -5 4 2004.84 332.421 5
-4 5 4 2309.83 461.048 2
-4 -5 4 2143.35 415.884 4
4 5 4 2132.31 287.5 1
4 -5 5 264.994 125.646 5
-4 5 5 122.564 145.625 2
-4 -5 5 393.941 221.045 4
4 5 5 187.495 94.7248 1
4 -5 6 -28.0055 81.0342 5
-4 5 6 181.703 157.296 2
4 5 6 -76.9838 105.914 1
-4 -5 6 -69.2376 102.789 4
4 -5 7 -83.6675 119.916 5
4 5 7 8.49865 81.0879 1
-4 -5 7 9.56302 109.938 4
4 -5 8 321.905 146.759 5
4 5 8 381.97 143.686 1
-4 -5 8 779.73 289.743 4
4 5 9 403.509 172.413 1
4 -5 9 664.198 203.375 5
-4 -5 9 435.94 242.268 4
4 5 10 2354.66 372.953 1
4 -5 10 2390.5 375.494 5
-4 -5 10 2220.8 453.536 4
4 5 11 761.554 233.818 1
-4 -5 11 461.328 311.546 4
4 5 12 422.06 190.633 1
-4 6 -8 -95.254 105 6
-4 6 -7 414.127 195.868 6
4 -6 -7 292.264 180.657 5
-4 6 -6 469.821 224.641 6
4 -6 -6 720.315 245.886 5
-4 6 -5 142.274 167.969 2
4 -6 -5 -86.4472 143.6 5
-4 6 -4 333.15 210.819 2
4 -6 -4 55.635 120.735 5
-4 6 -3 524.725 230.244 2
4 -6 -3 486.277 200.568 5
-4 6 -2 310.935 154.639 2
4 -6 -2 328.937 216.343 5
4 -6 -1 3551.11 493.129 5
-4 -6 -1 3302.08 507.325 5
-4 6 -1 4188.83 604.313 2
-4 6 0 2443.95 476.748 2
4 -6 0 1785.69 362.829 5
-4 -6 0 2401.1 431.903 5
-4 -6 0 2264.15 450.152 4
4 -6 1 4052.54 510.163 5
-4 -6 1 4375.31 569.533 5
-4 6 1 3989.52 607.157 2
-4 -6 1 3688.18 547.169 4
-4 6 2 99.743 110.763 2
4 -6 2 69.5719 147.667 5
-4 -6 2 142.042 193.327 4
4 -6 3 226.264 149.455 5
-4 6 3 171.049 175.79 2
-4 -6 3 175.133 156.295 4
4 -6 4 -59.5079 109.652 5
-4 6 4 49.9499 113.455 2
-4 -6 4 282.325 260.163 4
4 -6 5 -119.585 123.297 5
-4 -6 5 232.111 166.138 4
4 -6 6 372.516 191.388 5
-4 -6 6 381.377 241.722 4
4 -6 7 406.187 197.128 5
-4 -6 7 123.944 143.304 4
-5 0 -16 -194.486 175.233 7
5 0 -16 228.646 169.809 3
-5 0 -15 93.5177 151.152 7
5 0 -15 86.7155 127.325 3
-5 0 -14 -25.6698 163.277 7
5 0 -14 -5.577 129.262 3
-5 0 -13 45.4293 176.79 7
5 0 -13 96.425 68.2163 3
-5 0 -13 193.294 122.709 2
-5 0 -12 247.359 198.577 7
5 0 -12 13.1882 95.67 3
-5 0 -12 92.6206 102.809 2
-5 0 -11 115.684 118.569 7
5 0 -11 -21.3021 144.246 3
-5 0 -11 143.547 66.0945 2
-5 0 -10 160.345 167.477 7
5 0 -10 76.9644 118.484 3
-5 0 -10 283.281 137.739 2
5 0 -9 114.377 168.567 3
-5 0 -9 197.55 114.998 2
-5 0 -8 259.754 166.678 7
-5 0 -8 62.8946 73.8182 2
5 0 -8 54.8242 98.6435 3
-5 0 -7 -12.1545 44.6078 2
-5 0 -7 130.025 91.8222 7
5 0 -7 -14.747 22.9997 7
5 0 -7 -16.1151 75.6086 3
-5 0 -6 59.7808 64.7372 2
-5 0 -6 362.813 219.667 7
5 0 -6 191.054 134.617 3
-5 0 -5 218.164 101.822 2
-5 0 -5 208.386 182.199 7
5 0 -5 388.684 161.659 3
-5 0 -4 465.862 138.317 7
-5 0 -4 348.551 105.441 2
5 0 -4 519.691 184.501 3
-5 0 -3 162.773 83.0468 2
5 0 -3 147.537 117.982 3
-5 0 -3 94.7154 70.5747 7
-5 0 -2 1.37212 35.4685 7
-5 0 -2 75.415 55.2047 2
5 0 -2 -70.3129 79.5417 3
-5 0 -2 0.17646 48.9413 4
-5 0 -1 44.8869 42.4222 7
5 0 -1 74.2182 52.7214 3
-5 0 -1 79.0512 73.8194 2
-5 0 -1 115.493 81.5081 4
-5 0 0 27.3161 52.5737 7
5 0 0 66.011 65.9756 3
-5 0 0 37.9545 51.1778 2
-5 0 0 81.7591 61.7247 4
5 0 1 132.78 124.175 3
-5 0 1 57.9458 47.9752 7
-5 0 1 98.2464 99.8982 4
-5 0 2 28.2018 67.1836 4
-5 0 2 -4.77729 26.0699 7
5 0 3 -35.6131 75.8303 3
5 0 3 85.5861 68.2154 2
-5 0 3 212.539 129.14 4
5 0 4 587.122 198.517 3
-5 0 4 420.444 158.295 4
5 0 5 302.473 164.098 3
-5 0 5 254.776 159.947 4
5 0 6 -65.255 57.6078 3
5 0 6 49.7098 73.6281 1
-5 0 6 -30.4068 69.7234 4
5 0 7 8.68371 64.3206 3
-5 0 7 19.556 86.5645 4
5 0 7 -100.15 126.44 1
5 0 8 106.452 81.0443 1
5 0 8 56.4816 108.608 3
-5 0 8 64.0163 132.681 4
5 0 9 33.6577 93.6997 1
-5 0 9 233.019 131.82 4
5 0 10 272.41 146.845 1
-5 0 10 148.156 167.039 4
5 0 11 11.5649 68.0603 1
-5 0 11 345.427 168.403 4
5 0 12 5.18978 70.1733 1
-5 0 12 283.818 166.971 4
5 0 13 -115.198 123.301 1
-5 0 13 187.373 195.893 4
5 0 14 113.934 131.957 1
-5 0 14 46.4231 155.547 4
5 0 15 -78.3934 114.822 1
-5 0 15 276.898 218.481 4
5 0 16 82.6415 144.434 1
-5 0 16 177.783 186.023 4
-5 -1 -16 1033.44 336.635 7
5 -1 -16 1243.42 358.655 3
-5 1 -16 1063.34 296.989 2
-5 -1 -15 1247.5 347.9 7
5 -1 -15 573.245 233.414 3
5 1 -15 510.812 229.209 3
-5 1 -15 1228.88 290.529 2
-5 -1 -14 350.567 181.05 7
5 -1 -14 386.005 183.856 3
5 1 -14 573.518 209.461 3
-5 1 -14 734.02 219.218 2
5 -1 -13 2952.88 467.636 3
-5 -1 -13 3131.21 487.873 7
5 1 -13 2453.76 413.659 3
-5 1 -13 2708.05 382.537 2
-5 -1 -12 2870.58 469.42 7
5 -1 -12 2379.73 402.651 3
5 1 -12 2492.2 393.133 3
-5 1 -12 2754.59 364.871 2
5 -1 -11 2895.43 442.897 3
5 1 -11 2418.87 391.706 3
-5 1 -11 2850.95 362.223 2
-5 -1 -11 3016.69 501.181 7
5 -1 -10 8122.53 721.833 3
5 1 -10 7817.59 655.594 3
-5 1 -10 9007.06 593.467 2
-5 -1 -10 8545.8 663.613 7
-5 1 -9 498.413 158.74 2
-5 -1 -9 401.341 141.189 7
5 -1 -9 769.367 227.149 3
5 1 -9 231.733 92.5106 3
5 -1 -8 3914.58 480.991 3
5 1 -8 3194.12 411.802 3
-5 1 -8 4249.8 382.178 2
-5 -1 -8 3484.2 376.463 7
-5 -1 -7 345.565 119.838 7
-5 1 -7 385.725 133.435 2
5 1 -7 242.29 80.5956 7
5 -1 -7 485.838 171.493 3
5 1 -7 396.38 148.67 3
5 1 -6 2321.2 226.895 7
5 -1 -6 2756.56 400.468 3
5 1 -6 2669.35 359.921 3
-5 -1 -6 2495.92 288.562 7
-5 -1 -6 2595.36 205.311 2
-5 1 -6 2724.01 291.346 2
-5 -1 -5 189.995 68.5092 7
5 1 -5 415.909 100.03 7
-5 1 -5 419.2 116.364 2
5 -1 -5 218.599 86.2211 3
5 1 -5 126.31 90.8371 3
-5 -1 -5 269.32 60.0672 2
5 1 -4 9589.27 429.637 7
5 -1 -4 8874.38 634.814 3
5 1 -4 9831.17 656.327 3
-5 -1 -4 9324.95 315.388 2
-5 1 -4 9609.75 539.251 2
-5 -1 -4 9320.8 542.04 7
-5 -1 -3 217.312 108.191 7
-5 1 -3 181.335 107.325 2
5 -1 -3 123.516 121.846 3
5 1 -3 380.358 159.12 3
5 1 -3 255.997 85.9842 7
-5 -1 -3 268.773 51.102 2
5 -1 -2 3230.81 364.432 3
5 1 -2 2616.15 302.503 3
-5 -1 -2 3390.61 310.512 7
-5 -1 -2 2926.74 322.161 4
-5 -1 -2 2960.3 130.178 2
-5 1 -2 3040.35 308.157 2
5 1 -2 3166.39 243.521 7
-5 -1 -1 17381.4 685.075 7
5 1 -1 16920.1 775.808 3
-5 1 -1 18678.5 569.544 4
-5 -1 -1 17112.7 799.74 4
-5 -1 -1 17864.7 345.794 2
-5 1 -1 18845.3 783.891 2
5 1 -1 18900.4 604.031 7
5 -1 -1 17028.4 834.273 3
5 1 0 2954.27 317.404 3
-5 -1 0 3106.33 274.723 7
-5 1 0 3157.63 231.235 4
-5 -1 0 3157.23 350.271 4
5 -1 0 3150.02 225.545 4
-5 -1 0 2923.07 151.67 2
-5 1 0 3362.49 331.668 2
5 -1 0 2783.45 337.474 3
-5 -1 1 18101.8 662.044 7
-5 -1 1 19445.4 907.506 4
-5 1 1 18965 658.217 4
5 -1 1 17589.5 563.604 4
-5 1 1 18581.9 803.518 2
5 -1 1 18871.9 893.78 3
5 1 1 18359.8 822.434 3
-5 -1 2 3074.82 358.236 4
5 -1 2 3071.97 244.245 4
-5 1 2 2870.82 259.674 4
-5 -1 2 3099.72 261.83 7
5 -1 2 2734.14 342.665 3
5 1 2 3259.94 347.388 3
-5 1 2 2540.24 109.956 7
5 -1 3 274.91 131.962 3
5 1 3 384.186 134.406 3
5 1 3 307.276 65.3172 2
5 -1 3 246.283 101.127 4
-5 -1 3 322.88 155.726 4
-5 1 3 226.908 103.21 4
-5 -1 3 290.549 67.494 2
5 -1 4 8682.08 441.611 4
-5 -1 4 9379.48 375.58 2
-5 -1 4 9032.58 601.873 4
-5 1 4 8439.33 457.609 4
5 1 4 9311.57 381.015 2
5 -1 4 9926.43 657.707 3
5 1 4 9904.4 600.283 3
5 -1 5 346.955 136.182 3
5 1 5 347.416 94.4164 2
5 1 5 66.3009 60.0958 3
-5 -1 5 277.505 118.516 4
-5 1 5 214.292 89.2898 4
5 1 6 2698.27 333.847 1
5 -1 6 2785.51 314.39 1
-5 -1 6 2251.28 315.279 4
-5 1 6 2307.84 272.264 4
5 1 6 2767.81 318.117 3
5 -1 6 3099.66 368.633 3
5 -1 7 504.189 179.599 3
5 1 7 385.347 129.798 3
5 1 7 433.581 135.898 1
5 -1 7 391.871 104.417 1
-5 -1 7 367.046 149.405 4
-5 1 7 499.053 149.832 4
5 -1 8 3408.94 357.232 1
-5 -1 8 3991.64 447.96 4
5 1 8 3719.12 416.014 1
5 -1 8 4194.65 442.374 3
5 -1 9 538.717 139.583 1
5 1 9 480.099 148.966 1
-5 -1 9 325.591 145.776 4
5 -1 10 8280.38 576.634 1
5 1 10 9266.11 664.45 1
-5 -1 10 8213.37 698.742 4
5 1 11 2936.55 393.909 1
-5 -1 11 2917.71 437.789 4
5 -1 11 2816.66 346.516 1
-5 -1 12 2806.92 462.209 4
5 1 12 2386.59 351.385 1
5 -1 12 2974.87 370.16 1
5 1 13 2429.96 373.25 1
-5 -1 13 2448.69 443.325 4
5 -1 13 2758.71 380.755 1
5 -1 14 473.906 164.314 1
5 1 14 448.918 208.514 1
-5 -1 14 625.642 237.259 4
5 -1 15 1157.82 264.621 1
5 1 15 988.429 278.543 1
-5 -1 15 487.159 226.605 4
5 -1 16 1309.56 309.113 1
5 1 16 1316.44 317.66 1
5 -1 17 92.5929 112.287 1
5 2 -17 855.178 324.54 6
5 -2 -16 324.412 233.058 3
-5 2 -15 1643.3 358.139 6
-5 -2 -15 2483.7 493.108 7
5 -2 -15 1133.16 349.729 3
5 2 -15 1563.43 370.31 3
-5 2 -15 1592.47 347.77 2
-5 -2 -14 83.2933 164.75 7
-5 2 -14 182.794 141.585 6
5 -2 -14 74.0574 129.124 3
5 2 -14 118.264 148.454 3
-5 2 -14 82.2729 125.354 2
-5 -2 -13 1105.31 331.355 7
-5 2 -13 755.335 224.103 2
-5 2 -13 999.903 250.563 6
5 -2 -13 1022.15 326.019 3
5 2 -13 455.162 195.269 3
-5 2 -12 705.145 220.65 2
-5 -2 -12 1207.61 327.086 7
-5 2 -12 603.684 203.732 6
5 -2 -12 455.205 217.14 3
5 2 -12 456.955 208.812 3
-5 2 -11 474.626 190.595 2
-5 -2 -11 289.567 182.416 7
-5 2 -11 184.26 135.683 6
5 -2 -11 133.292 113.996 3
5 2 -11 99.374 122.216 3
-5 2 -10 902.254 243.631 2
-5 -2 -10 719.434 225.768 7
-5 2 -10 601.844 186.299 6
5 -2 -10 1026.63 186.797 5
5 -2 -10 790.574 268.885 3
5 2 -10 681.113 200.226 3
-5 -2 -9 1282.72 288.665 7
-5 2 -9 1164.11 231.805 2
-5 2 -9 838.576 201.962 6
5 -2 -9 1212.63 300.818 3
5 2 -9 865.137 227.53 3
-5 -2 -8 969.828 229.266 7
-5 2 -8 1486.93 263.446 2
-5 2 -8 1740.73 288.771 6
5 -2 -8 1506.84 325.95 3
5 2 -8 1183.18 252.296 3
-5 2 -7 767.989 170.251 2
-5 2 -7 1026.49 199.406 6
-5 -2 -7 785.925 198.029 7
5 -2 -7 1079.16 255.363 3
5 2 -7 1014.71 232.511 3
-5 -2 -6 394.976 155 7
-5 2 -6 116.844 76.4476 2
-5 2 -6 260.25 148.488 6
5 -2 -6 325.432 150.068 3
5 2 -6 193.243 116.448 3
-5 -2 -5 184.272 89.2986 7
-5 2 -5 148.231 115.098 2
5 -2 -5 122.526 49.838 6
-5 2 -5 17.8751 68.1476 6
5 -2 -5 90.852 62.2012 3
5 2 -5 298.711 139.322 3
5 -2 -4 2283.32 331.595 3
5 2 -4 2205.16 314.379 3
5 -2 -4 2195.77 184.678 6
-5 2 -4 2587.48 333.856 2
-5 -2 -4 2750.31 344.323 7
-5 -2 -3 220.858 112.474 7
5 -2 -3 201.732 64.3792 6
5 -2 -3 126.346 72.9542 3
-5 2 -3 270.17 133.613 2
5 2 -3 247.207 111.445 3
-5 -2 -3 176.848 89.6234 4
-5 -2 -2 7215.04 545.674 7
5 2 -2 7364.33 512.033 3
-5 -2 -2 7650.26 590.192 4
-5 2 -2 7427.41 557.786 2
5 -2 -2 6552.53 545.479 3
5 2 -1 32776.1 1062.5 3
-5 -2 -1 33375.5 1142.11 7
-5 -2 -1 33898.5 1283.93 4
-5 2 -1 34670 1230.7 2
5 -2 -1 32562.1 1223.11 3
5 2 0 64218.5 1532.29 3
-5 -2 0 63605.9 1599.61 7
-5 -2 0 66757.1 1874.69 4
-5 2 0 67434.7 1801.38 2
5 -2 0 62768.8 1761.75 3
-5 -2 1 33430.3 1107.39 7
-5 2 1 32556.7 583.573 4
-5 -2 1 36858.8 1378.54 4
-5 2 1 35800.5 1290.97 2
5 -2 1 34119.2 1261.51 3
5 2 1 35933.9 1107.42 3
-5 2 2 7972.87 392.897 7
-5 -2 2 8135.07 657.29 4
-5 2 2 7164.89 315.254 4
-5 -2 2 6518.79 227.718 2
5 -2 2 7439.05 580.737 3
5 2 2 7299.79 494.08 3
-5 2 3 187.328 46.7348 7
-5 -2 3 326.002 71.8223 2
5 -2 3 517.967 160.504 3
5 2 3 193.495 84.1425 3
-5 -2 3 402.535 161.493 4
5 -2 3 150.704 39.0908 4
-5 2 3 162.686 64.7151 4
5 -2 4 2301.59 177.21 4
-5 -2 4 2593.05 367.27 4
-5 2 4 2271.89 213.967 4
-5 -2 4 2453.67 194.895 2
5 2 4 2248.85 134.801 2
5 -2 4 2303.54 324.731 3
5 2 4 2476.31 265.966 3
-5 2 4 2486.95 158.165 7
-5 2 5 212.355 41.8424 7
5 2 5 101.437 36.3543 2
5 2 5 108.058 58.7583 3
5 2 5 190.737 110.713 1
5 -2 5 194.314 100.492 3
5 -2 5 107.6 49.2507 4
-5 -2 5 382.016 166.301 4
-5 2 5 92.1171 76.4723 4
5 2 6 269.414 107.073 3
5 -2 6 510.006 177.681 3
5 2 6 196.07 48.5364 2
5 -2 6 172.217 88.6315 1
5 2 6 185.615 99.8865 1
-5 -2 6 234.492 135.254 4
5 -2 7 1220.23 253.512 3
5 2 7 875.997 205.679 1
5 -2 7 864.956 165.289 1
-5 -2 7 865.88 249.663 4
5 -2 8 1542.07 233.16 1
5 2 8 1178.7 248.846 1
-5 -2 8 2173.59 372.421 4
5 -2 9 1369.67 220.221 1
5 2 9 1212.16 260.524 1
-5 -2 9 928.982 243.645 4
5 2 10 947.453 231.011 1
5 -2 10 743.208 160.949 5
-5 -2 10 626.555 223.562 4
5 -2 10 501.684 127.545 1
5 -2 11 117.508 100.914 5
5 -2 11 -5.81079 95.0508 1
-5 -2 11 133.696 150.221 4
5 2 11 -92.7294 103.067 1
5 -2 12 626.216 178.914 1
5 2 12 1106.15 267.011 1
-5 -2 12 538.342 258.262 4
5 -2 13 633.467 180.287 1
5 2 13 625.907 215.766 1
-5 -2 13 448.67 222.969 4
5 -2 14 -118.4 73.1103 1
5 2 14 66.6037 98.8134 1
-5 -2 14 -38.3059 124.812 4
5 2 15 2033.33 385.111 1
-5 -2 15 1293.97 369.101 4
5 -3 -15 67.0154 167.022 3
-5 -3 -14 429.619 228.952 7
5 -3 -14 917.522 338.901 3
5 3 -14 643.129 250.834 3
-5 3 -14 683.929 237.278 2
-5 3 -14 441.398 250.077 6
-5 3 -13 358.031 194.767 2
-5 -3 -13 -161.941 151.624 7
-5 3 -13 64.3771 122.968 6
5 -3 -13 220.381 160.368 3
5 3 -13 168.132 91.4751 3
-5 -3 -12 260.889 158.639 7
-5 3 -12 335.475 179.672 6
-5 3 -12 647.857 236.071 2
5 -3 -12 338.331 225.112 3
5 3 -12 499.556 201.358 3
-5 3 -11 593.884 209.013 2
-5 -3 -11 805.108 272.479 7
-5 3 -11 130.831 151.798 6
5 -3 -11 877.236 292.816 3
5 3 -11 195.209 186.041 3
-5 3 -10 18.6762 89.0971 2
-5 -3 -10 166.565 184.776 7
-5 3 -10 73.5816 89.7766 6
5 -3 -10 163.741 132.018 3
5 -3 -10 2.50644 55.059 5
5 3 -10 10.4334 100.35 3
-5 -3 -9 339.669 170.377 7
-5 3 -9 438.614 168.107 2
-5 3 -9 490.702 185.225 6
5 -3 -9 290.222 191.9 3
5 -3 -9 226.958 115.527 5
5 3 -9 159.221 127.896 3
-5 3 -8 -169.61 115.325 2
-5 3 -8 101.211 129.614 6
5 -3 -8 -97.1714 91.2801 3
5 -3 -8 162.299 111.85 5
5 3 -8 13.7471 64.4529 3
-5 -3 -7 902.976 234.327 7
-5 3 -7 1190.28 269.688 2
-5 3 -7 757.959 199.433 6
5 -3 -7 1003.3 250.401 3
5 -3 -7 1127.99 210.957 5
5 3 -7 796.571 217.885 3
-5 -3 -6 194.463 102.374 7
-5 3 -6 643.778 224.611 2
-5 3 -6 451.697 166.805 6
5 -3 -6 231.624 116.944 3
5 -3 -6 355.491 140.198 5
5 3 -6 328.944 154.52 3
-5 -3 -5 175.249 150.862 7
-5 3 -5 175.605 125.24 2
-5 3 -5 29.5781 75.9612 6
5 -3 -5 11.3846 101.582 3
5 -3 -5 16.4254 87.5254 5
5 3 -5 208.453 111.73 3
-5 -3 -4 586.63 205.622 7
-5 3 -4 156.89 76.0689 6
5 -3 -4 393.975 152.388 3
-5 3 -4 426.246 134.999 2
5 -3 -4 363.727 162.677 5
5 3 -4 301.404 130.967 3
-5 -3 -3 4246.31 469.822 7
5 3 -3 4181.32 401.576 3
-5 3 -3 4467.32 394.796 6
-5 -3 -3 4049.34 480.116 4
-5 3 -3 4337.47 480.359 2
5 -3 -3 3939.13 427.15 3
-5 -3 -2 7528.14 616.988 7
5 3 -2 7098.87 497.473 3
-5 -3 -2 7479.51 392.215 3
-5 3 -2 7614.67 498.369 6
5 -3 -2 7871.95 609.411 3
-5 -3 -2 7589.65 655.251 4
-5 3 -2 7811.92 631.652 2
-5 -3 -1 379.386 160.612 7
5 -3 -1 511.306 163.852 3
5 3 -1 167.042 94.12 3
-5 3 -1 87.9819 93.1576 2
-5 -3 -1 233.199 128.974 4
-5 -3 0 26709.5 1142.41 7
-5 -3 0 30428 1349.12 4
-5 3 0 30134.5 1293.5 2
5 -3 0 28356.5 1175.88 3
5 3 0 27430.6 914.928 3
5 -3 1 253.156 128.466 3
5 3 1 425.679 105.302 3
-5 3 1 226.195 153.325 2
-5 -3 1 72.9119 87.7942 4
-5 -3 2 7841.66 684.006 4
-5 3 2 8324.61 689.584 2
5 -3 2 7652.27 610.371 3
5 3 2 7538.39 417.091 3
5 -3 3 4526.92 389.464 5
-5 -3 3 4222.67 512.333 4
-5 3 3 3084.24 184.891 4
5 -3 3 3704.9 426.182 3
5 3 3 3891.06 270.364 3
5 -3 4 339.025 143.752 3
5 -3 4 278.938 104.554 5
5 3 4 257.043 74.5776 3
5 3 4 388.546 136.05 1
-5 -3 4 426.364 182.342 4
5 -3 5 -38.6727 73.1127 3
5 3 5 85.6325 97.8564 1
5 -3 5 -2.50457 58.6666 1
-5 -3 5 -105.314 111.779 4
5 3 6 447.083 170.909 1
5 -3 6 189.004 85.1066 1
5 -3 6 335.953 132.701 5
5 -3 6 311.574 145.052 3
-5 -3 6 373.84 158.885 4
5 -3 7 1811.17 320.724 3
5 -3 7 1034.21 208.915 5
5 -3 7 1012.51 168.252 1
5 3 7 1345.29 259.579 1
-5 -3 7 824.74 243.687 4
5 -3 8 -3.92911 58.2217 1
5 3 8 193.352 120.076 1
5 -3 8 65.028 94.366 5
-5 -3 8 155.033 150.837 4
5 3 9 440.711 172.44 1
5 -3 9 314.278 128.185 5
-5 -3 9 428.424 188.272 4
5 -3 10 34.8598 83.1106 5
5 3 10 46.5082 104.236 1
-5 -3 10 191.81 187.107 4
5 -3 11 634.221 175.522 5
-5 -3 11 937.733 310.288 4
5 3 11 454.173 154.181 1
5 3 12 922.824 261.596 1
-5 -3 12 558.307 253.705 4
5 3 13 175.556 97.8617 1
-5 -3 13 312.12 277.775 4
5 3 14 810.716 256.38 1
5 4 -13 -81.0598 135.48 3
-5 -4 -12 40.0508 179.352 7
5 4 -12 -123.296 106.626 3
-5 4 -11 292.74 181.456 2
-5 -4 -11 20.4159 224.149 7
-5 4 -11 74.0444 150.985 6
5 4 -11 -78.298 80.9502 3
-5 4 -10 404.022 161.618 2
-5 -4 -10 811.399 263.841 7
-5 4 -10 835.58 258.283 6
5 -4 -10 449.375 211.816 3
5 -4 -10 529.023 184.005 5
5 4 -10 281.933 135.983 3
-5 4 -9 14.6349 133.579 2
-5 4 -9 -21.4412 123.789 6
5 -4 -9 176.604 123.732 3
5 -4 -9 433.585 166.843 5
5 4 -9 104.942 112.185 3
-5 -4 -9 177.69 166.855 7
5 4 -8 3196.31 427.214 3
-5 -4 -8 2989.79 478.876 7
-5 4 -8 2865.36 394.505 6
5 -4 -8 3380 399.06 5
-5 4 -8 3325.88 481.673 2
5 -4 -8 3136.22 432.526 3
-5 -4 -7 315.924 148.052 7
-5 4 -7 203.458 135.397 2
-5 4 -7 93.7634 86.1461 6
5 -4 -7 219.79 98.0145 3
5 -4 -7 202.827 126.94 5
5 4 -7 130.831 115.391 3
-5 -4 -6 938.556 283.883 7
-5 4 -6 618.23 227.859 2
5 -4 -6 386.736 159.77 3
-5 4 -6 344.66 145.061 6
5 -4 -6 620.166 196.072 5
5 4 -6 378.833 141.692 3
-5 -4 -5 786.685 220.5 7
5 -4 -5 604.001 187.483 3
-5 4 -5 553.224 171.48 6
-5 4 -5 521.092 192.71 2
5 -4 -5 865.592 216.815 5
5 4 -5 702.44 174.983 3
-5 -4 -4 3671.26 493.362 7
5 4 -4 3536.71 395.357 3
-5 4 -4 3060.61 362.772 6
5 -4 -4 3626.18 421.518 5
-5 4 -4 3514.57 456.605 2
5 -4 -4 3477.35 426.177 3
-5 -4 -3 547.301 194.572 7
5 -4 -3 557.163 184.574 3
-5 4 -3 523.866 160.971 6
-5 4 -3 609.075 197.235 2
5 -4 -3 405.724 132.56 5
5 4 -3 503.021 158.324 3
-5 -4 -2 942.813 258.349 7
5 -4 -2 1152.81 256.297 3
-5 4 -2 963.389 192.341 6
-5 4 -2 1029.57 251.839 2
5 -4 -2 1354.33 247.653 5
-5 -4 -2 1498.72 317.692 4
-5 -4 -1 8733.22 726.802 7
-5 4 -1 7501.85 501.549 6
5 -4 -1 7509.47 571.914 5
-5 -4 -1 8452.41 759.647 4
-5 4 -1 7949.84 716.76 2
5 -4 -1 8190.96 646.413 3
5 -4 0 808.091 213.646 3
5 -4 0 602.12 170.315 5
-5 4 0 971.76 290.783 2
-5 -4 0 385.784 151.033 4
5 -4 1 8579.69 604.059 5
-5 -4 1 8185.84 756.318 4
-5 4 1 8577.58 763.211 2
5 -4 1 7524.29 625.03 3
5 -4 2 742.357 192.573 3
5 -4 2 963.958 219.864 5
5 4 2 830.232 167.283 1
-5 4 2 894.277 246.829 2
-5 -4 2 778.642 201.302 4
5 -4 3 635.672 195.02 3
5 -4 3 699.983 180.362 5
-5 4 3 529.845 222.805 2
5 4 3 426.808 142.702 1
-5 -4 3 462.178 209.046 4
5 -4 4 3249.51 370.855 5
5 4 4 3852.39 406.898 1
-5 -4 4 3583.53 503.551 4
-5 4 4 3478.32 480.21 2
5 -4 4 3835.11 458.193 3
5 -4 5 904.561 240.719 3
5 -4 5 877.432 201.324 5
-5 -4 5 925.809 281.044 4
5 4 5 1078.35 226.222 1
5 -4 6 554.433 163.866 5
5 4 6 637.02 182.833 1
-5 -4 6 527 201.422 4
5 4 7 225.654 126.618 1
5 -4 7 -57.6912 84.5151 5
-5 -4 7 322.462 203.78 4
5 4 8 3620.47 435.146 1
5 -4 8 3306.84 386.465 5
-5 -4 8 3014.67 493.784 4
5 -4 9 322.338 137.165 5
-5 -4 9 138.007 158.944 4
5 4 9 10.1004 92.3455 1
5 -4 10 337.852 110.816 5
5 4 10 478.601 186.97 1
-5 -4 10 257.093 240.547 4
5 4 11 152.424 168.518 1
-5 -4 11 -352.65 255.072 4
5 4 12 327.115 134.225 1
-5 -4 12 334.196 247.621 4
-5 5 -10 2065.76 404.51 6
-5 5 -9 4215.34 561.687 6
5 -5 -9 5047.07 546.985 5
-5 -5 -9 4193.23 641.009 7
-5 -5 -8 368.237 226.181 7
-5 5 -8 312.467 152.04 2
-5 5 -8 -25.363 120.646 6
5 -5 -8 216.737 139.57 5
-5 -5 -7 122.418 165.832 7
-5 5 -7 -64.6746 104.758 2
-5 5 -7 172.303 129.291 6
5 -5 -7 -61.8068 124.674 5
-5 -5 -6 193.759 171.428 7
-5 5 -6 51.5839 128.358 2
-5 5 -6 -147.007 127.098 6
5 -5 -6 341.133 157.757 5
-5 -5 -5 -50.7558 112.702 7
-5 5 -5 211.003 143.146 6
-5 5 -5 127.888 167.577 2
5 -5 -5 -135.53 144.409 5
-5 -5 -4 358.792 169.75 7
-5 5 -4 605.222 188.502 6
-5 5 -4 524.634 203.039 2
5 -5 -4 522.11 206.155 5
-5 -5 -3 1483.81 349.534 7
-5 5 -3 1553.47 282.02 6
-5 5 -3 1719.99 367.376 2
5 -5 -3 2567.84 401.696 5
-5 5 -2 419.025 176.518 2
5 -5 -2 139.092 147.754 5
5 -5 -1 19.5259 100.711 3
-5 5 -1 43.7566 103.799 2
5 -5 -1 -64.2179 105.668 5
-5 -5 -1 214.713 139.856 4
5 -5 0 172.19 141.146 3
-5 5 0 99.9599 177.768 2
5 -5 0 87.1193 82.9747 5
-5 -5 0 441.656 242.621 4
5 -5 1 100.568 119.205 3
-5 5 1 27.5842 100.133 2
-5 -5 1 -22.8653 128.986 4
5 -5 2 408.302 170.549 3
5 -5 2 205.591 82.6908 5
-5 5 2 253.24 143.836 2
-5 -5 2 282.624 168.431 4
5 -5 3 2125.43 364.775 3
5 -5 3 1907.02 321.989 5
-5 5 3 2670.73 493.403 2
-5 -5 3 1776.19 392.513 4
5 5 4 358.478 139.275 1
5 -5 4 374.015 179.628 5
-5 5 4 472.287 189.739 2
-5 -5 4 346.913 179.443 4
5 5 5 97.3034 102.177 1
5 -5 5 -240.394 154.888 5
-5 5 5 -148.645 97.2685 2
-5 -5 5 219.413 166.372 4
5 -5 6 -72.2977 81.2875 5
-5 5 6 16.511 83.8273 2
-5 -5 6 -50.2586 111.478 4
5 5 6 89.2178 74.6264 1
5 -5 7 -135.494 114.706 5
-5 5 7 63.7597 101.53 2
-5 -5 7 -177.324 146.27 4
5 5 7 238.759 132.767 1
5 -5 8 -12.6248 82.3429 5
5 5 8 151.673 125.976 1
-5 -5 8 81.8319 160.591 4
5 -5 9 5293.9 562.471 5
-5 -5 9 4984.67 703.804 4
5 5 9 5141.76 549.097 1
5 -5 10 2500 396.778 5
5 5 10 2591.14 421.78 1
5 5 11 3320.84 467.588 1
-5 6 -7 1761.89 341.8 6
-5 6 -1 421.357 207.842 2
5 -6 -1 727.458 247.078 5
-5 6 0 464.095 229.747 2
5 -6 0 37.1683 121.756 5
-5 -6 0 170.273 125.032 4
-5 6 1 863.508 300.567 2
5 -6 1 829.954 265.545 5
-5 -6 1 462.445 257.078 4
-5 -6 2 504.754 255.564 4
-5 -6 3 567.89 246.305 4
-5 -6 4 -221.853 208.368 4
-5 -6 5 1237.33 391.986 4
6 0 -15 1645.97 392.705 3
-6 0 -15 2239.56 419.107 7
-6 0 -14 -224.273 142.194 7
6 0 -14 104.851 160.769 3
-6 0 -13 336.424 187.564 7
6 0 -13 389.888 205.512 3
-6 0 -13 542.664 184.533 2
-6 0 -12 629.051 231.4 7
6 0 -12 271.307 169.592 3
-6 0 -12 341.854 144.271 2
6 0 -11 27646.7 1397.42 3
-6 0 -11 34048.3 1188.89 2
-6 0 -11 33424.7 1372.19 7
-6 0 -10 -9.34059 131.071 7
6 0 -10 283.496 156.278 3
-6 0 -10 186.142 111.696 2
6 0 -9 28158.5 1379.01 3
-6 0 -9 29376.3 997.704 2
-6 0 -9 29962.9 1178.33 7
6 0 -8 7603.94 702.283 3
-6 0 -8 8026.5 482.856 2
-6 0 -8 7397.37 549.769 7
-6 0 -7 496.467 124.973 2
-6 0 -7 727.271 200.326 7
6 0 -7 411.035 185.84 3
6 0 -6 7232.23 655.475 3
-6 0 -6 6940.93 417.629 2
-6 0 -6 6440.04 458.021 7
6 0 -5 5492.35 561.217 3
-6 0 -5 5207.82 347.474 2
-6 0 -5 5416.84 397.059 7
-6 0 -4 112.821 63.241 7
-6 0 -4 144.133 63.6565 2
6 0 -4 218.731 164.626 3
6 0 -3 49747.3 1609.98 3
-6 0 -3 52231.4 1138.1 2
-6 0 -3 49679.3 1157.07 7
6 0 -2 2032.42 307.021 3
-6 0 -2 1979.41 252.405 4
-6 0 -2 1994.13 210.138 2
-6 0 -2 3365.01 293.892 7
6 0 -1 1247.93 243.194 3
-6 0 -1 1485.23 204.226 7
-6 0 -1 1261.64 170.972 2
-6 0 -1 1181.21 195.471 4
-6 0 0 893.318 141.777 7
6 0 0 676.602 166.985 3
-6 0 0 934.272 159.241 2
-6 0 0 663.715 157.792 4
-6 0 1 1502.5 157.493 7
6 0 1 1078.27 244.676 3
-6 0 1 999.545 178.577 2
-6 0 1 1026.63 196.559 4
-6 0 2 1907.97 162.638 7
6 0 2 2174.71 310.359 3
-6 0 2 2056.84 288.524 4
-6 0 3 50634.8 1455.89 4
6 0 3 55610.5 1725.27 3
6 0 4 110.209 98.7101 3
-6 0 4 192.43 100.859 4
-6 0 5 4977.56 439.303 4
6 0 5 6087.69 550.122 3
-6 0 6 6141.1 509.383 4
6 0 6 6950.74 588.179 3
6 0 7 268.188 126.418 3
-6 0 7 232.484 91.9253 4
6 0 7 413.425 124.862 1
6 0 8 7412.52 597.687 1
-6 0 8 6305.47 559.365 4
6 0 8 7587.29 624.399 3
6 0 9 29064.7 1218.19 1
-6 0 9 25219.6 1165.63 4
6 0 10 118.511 106.601 1
-6 0 10 84.5911 107.572 4
6 0 11 33580.8 1340.95 1
-6 0 11 29619.3 1374.13 4
6 0 12 389.653 140.419 1
-6 0 12 230.369 174.76 4
-6 0 13 618.734 223.949 4
6 0 13 201.73 106.628 1
6 0 14 43.8356 119.885 1
-6 0 14 69.2997 153.398 4
6 0 15 2494.61 416.264 1
-6 0 15 1248.27 333.085 4
-6 1 -16 992.355 285.374 2
-6 1 -15 373.897 230.284 7
-6 -1 -15 -17.0656 138.413 7
6 -1 -15 148.988 165.325 3
6 1 -15 31.7031 104.869 3
-6 1 -15 -37.7372 114.539 2
-6 -1 -14 196.461 174.838 7
6 -1 -14 294.139 192.544 3
6 1 -14 247.507 156.763 3
-6 1 -14 239.623 123.89 2
-6 -1 -13 2295.65 416.643 7
6 -1 -13 2006.94 407.784 3
6 1 -13 1616.5 344.913 3
-6 1 -13 2229.74 353.084 2
-6 -1 -12 -146.844 166.039 7
6 -1 -12 266.274 202.574 3
6 1 -12 261.562 190.679 3
-6 1 -12 61.6358 114.708 2
-6 -1 -11 115.595 124.139 7
6 -1 -11 32.0338 154.206 3
6 1 -11 169.828 127.708 3
6 -1 -10 20729.7 1236.98 3
6 1 -10 18908.8 1118.37 3
-6 1 -10 21223.8 948.839 2
-6 -1 -10 20654.7 1071.7 7
-6 1 -9 712.978 190.415 2
-6 -1 -9 612.733 186.006 7
6 -1 -9 748.257 255.852 3
6 1 -9 797.062 253.684 3
6 1 -8 13128.9 908.417 3
6 -1 -8 13987.1 977.583 3
-6 1 -8 13331.1 704.438 2
-6 -1 -8 12179.3 743.606 7
-6 -1 -7 145.427 97.2709 7
-6 1 -7 271.528 108.562 2
6 -1 -7 450.707 211.216 3
6 1 -7 258.719 155.482 3
-6 -1 -7 258.657 90.337 2
-6 1 -6 255.403 113.644 2
-6 -1 -6 132.996 88.6795 7
6 -1 -6 197.467 148.876 3
6 1 -6 181.073 84.3599 3
-6 -1 -6 248.978 74.8605 2
-6 -1 -5 33.0986 57.7988 7
6 1 -5 22.1683 59.3665 7
-6 1 -5 -54.4632 54.8659 2
6 -1 -5 78.5804 130.575 3
6 1 -5 73.8092 97.8669 3
-6 -1 -5 35.4381 35.9263 2
-6 -1 -4 163.876 106.598 7
6 1 -4 118.811 69.8705 7
-6 1 -4 177.913 126.283 2
6 -1 -4 156.745 128.583 3
6 1 -4 140.329 108.858 3
-6 -1 -4 127.766 50.7357 2
6 1 -3 1525.18 164.181 7
-6 1 -3 1887.24 252.752 2
6 -1 -3 1570.4 285.865 3
6 1 -3 1399.79 254.616 3
-6 -1 -3 1590.45 119.854 2
-6 -1 -3 1704.84 252.753 7
6 -1 -2 4276.44 461.342 3
-6 -1 -2 4315.38 378.055 7
6 1 -2 4460.83 444.745 3
-6 -1 -2 4306.63 422.826 4
-6 -1 -2 4381.07 185.796 2
-6 1 -2 4740.49 409.824 2
6 1 -2 4660.72 293.066 7
-6 -1 -1 513.858 124.38 7
6 -1 -1 790.863 208.001 3
6 1 -1 543.605 159.002 3
-6 1 -1 652.507 158.627 2
-6 1 -1 587.569 116.171 4
-6 -1 -1 727.618 189.343 4
-6 -1 -1 611.19 70.1121 2
-6 -1 0 39364.4 1086.6 7
-6 1 0 38576.5 980.433 4
-6 -1 0 40150.8 1377.85 4
6 -1 0 39508.7 955.058 4
-6 -1 0 37762.8 707.281 2
-6 1 0 41600 1296.45 2
-6 1 0 38802.6 754.076 7
6 -1 0 39002.8 1405.47 3
6 1 0 37060.5 1262.43 3
-6 -1 1 612.277 135.782 7
6 -1 1 549.83 190.278 3
6 1 1 595.85 164.289 3
-6 -1 1 568.04 93.321 2
-6 1 1 759.266 176.339 2
-6 1 1 571.271 129.38 4
-6 -1 1 514.686 168.832 4
6 -1 1 437.303 94.5909 4
-6 1 1 699.621 94.7258 7
-6 -1 2 4842.45 349.272 7
-6 1 2 3314.95 153.084 7
-6 -1 2 4212.53 457.952 4
-6 1 2 4537.47 369.098 4
6 -1 2 4134.16 310.543 4
6 -1 2 4286.64 469.184 3
6 1 2 4524.57 459.061 3
6 -1 3 1309.88 264.651 3
6 1 3 1852.62 289.841 3
6 -1 3 1509.97 200.479 4
-6 -1 3 1853.48 301.45 4
-6 1 3 1302.33 200.554 4
6 -1 4 58.1735 81.942 3
6 1 4 41.6469 97.3165 3
6 1 4 31.1679 54.5799 2
-6 -1 4 150.309 132.693 4
-6 1 4 149.991 99.4136 4
6 -1 5 185 131.949 3
6 1 5 32.6518 62.2509 3
6 1 5 -7.98591 38.2259 2
-6 -1 5 33.0412 73.8137 4
-6 1 5 74.181 84.2183 4
6 1 6 385.563 142.866 3
6 -1 6 181.766 108.555 3
6 1 6 62.0003 72.898 1
-6 -1 6 271.012 125.15 4
-6 1 6 258.597 107.834 4
6 1 7 91.7881 80.5839 3
6 -1 7 305.997 136.123 3
6 1 7 135.634 109.638 1
-6 -1 7 99.961 84.3636 4
-6 1 7 151.269 69.3577 4
6 -1 7 337.381 132.354 1
6 -1 8 13095.8 778.053 1
-6 -1 8 12388.7 835.144 4
-6 1 8 12275.4 738.311 4
6 1 8 14079.6 853.851 1
6 1 8 14565.3 804.735 3
6 -1 8 13674.2 869.383 3
-6 -1 9 259.013 118.369 4
-6 1 9 969.725 226.078 4
6 -1 9 778.146 195.743 1
6 1 9 1051.43 231.362 1
6 -1 10 20899 987.004 1
6 1 10 20535.8 1064.71 1
-6 -1 10 20174.7 1138.73 4
-6 1 10 20222.4 1035.24 4
6 -1 11 533.553 207.508 1
6 1 11 190.308 147.452 1
-6 -1 11 343.293 219.985 4
-6 1 11 11.9662 108.783 4
6 1 12 -64.1699 115.031 1
-6 -1 12 161.791 134.209 4
-6 1 12 103.834 121.339 4
6 -1 12 -123.338 151.37 1
6 -1 13 1889.56 313.592 1
-6 -1 13 1742.4 389.585 4
-6 1 13 1578.22 355.259 4
6 1 13 1817.94 349.059 1
6 -1 14 219.662 131.748 1
6 1 14 336.411 177.287 1
-6 -1 14 64.8001 145.661 4
-6 1 14 266.459 154.243 4
6 -1 15 97.8398 115.64 1
6 1 15 144.777 147.185 1
-6 -1 15 162.172 172.211 4
-6 1 15 124.264 144.229 4
6 -1 16 674.316 225.884 1
6 -2 -15 1063.78 323.005 3
-6 2 -15 1601.88 354.338 2
-6 -2 -14 359.351 223.667 7
6 -2 -14 75.7705 123.586 3
6 2 -14 -68.312 130.467 3
-6 2 -14 267.281 154.685 2
-6 -2 -13 802.628 259.059 7
-6 2 -13 878.912 252.165 2
6 -2 -13 508.382 209.827 3
6 2 -13 481.195 226.304 3
-6 2 -12 1279.64 290.096 2
-6 -2 -12 1245.59 312.337 7
6 -2 -12 633.167 264.436 3
6 2 -12 1120.54 266.337 3
-6 2 -11 251.139 149.057 2
-6 -2 -11 510.141 223.324 7
6 -2 -11 360.947 186.859 3
6 2 -11 149.785 135.149 3
-6 -2 -10 2494.49 407.65 7
6 -2 -10 3006.33 499.793 3
6 2 -10 2257.52 385.88 3
-6 2 -10 2345.87 360.252 2
-6 -2 -9 2698.72 405.795 7
-6 2 -9 2257.13 343.67 2
6 -2 -9 1750.46 378.544 3
6 2 -9 1100.61 267.48 3
-6 -2 -8 91.8282 132.088 7
-6 2 -8 -9.97316 81.9747 2
6 -2 -8 -55.5202 121.417 3
6 2 -8 -55.4815 107.183 3
-6 -2 -7 4885.15 506.807 7
6 -2 -7 4996.08 575.32 3
6 2 -7 5589.68 576.891 3
-6 2 -7 5363.12 504.178 2
-6 -2 -6 3353.34 416.571 7
6 -2 -6 3704.58 486.995 3
6 2 -6 4805.23 525.223 3
-6 2 -6 4412.73 453.946 2
-6 -2 -5 343.598 171.783 7
-6 2 -5 410.082 163.067 2
6 -2 -5 294.149 153.583 3
6 2 -5 145.967 70.8989 3
6 -2 -4 2699.58 379.204 3
-6 -2 -4 2183.83 319.462 7
6 2 -4 2121.79 321.875 3
-6 2 -4 3248.4 385.496 2
-6 -2 -3 16447.2 856.288 7
6 2 -3 15089.2 839.523 3
-6 -2 -3 18228.9 962.223 4
-6 2 -3 17293.2 899.22 2
6 -2 -3 15526.1 907.57 3
-6 -2 -2 361.351 162.185 7
6 -2 -2 502.073 172.809 3
6 2 -2 316.935 110.727 3
-6 2 -2 383.537 157.451 2
-6 -2 -2 232.68 103.836 4
-6 -2 -1 645.74 171.247 7
6 -2 -1 1097.91 249.598 3
6 2 -1 811.624 183.91 3
-6 2 -1 973.381 220.094 2
-6 -2 -1 709.909 193.665 4
-6 -2 0 15325.9 782.839 7
-6 -2 0 15000.2 916.182 4
-6 2 0 15730.7 893.031 2
6 -2 0 14479.9 873.941 3
6 2 0 13651.1 734.621 3
-6 -2 1 895.214 192.979 7
6 -2 1 799.878 211.965 3
6 2 1 765.769 164.51 3
-6 2 1 964.971 230.867 2
-6 2 1 980.865 107.704 4
-6 -2 1 1090.13 257.779 4
-6 2 2 414.792 95.3148 7
6 -2 2 373.892 154.707 3
6 2 2 529.332 156.762 3
-6 -2 2 226.004 34.3601 2
-6 2 2 245.275 109.914 2
-6 -2 2 194.801 137.936 4
-6 2 2 420.608 93.8082 4
-6 -2 3 17373 1003.55 4
-6 2 3 17064.9 605.825 4
6 -2 3 13753 398.016 4
-6 -2 3 15726 440.021 2
6 -2 3 17973.2 977.676 3
6 2 3 18924.7 870.511 3
6 -2 4 2445.79 363.491 3
-6 2 4 2039.46 223.56 4
-6 -2 4 1897.47 348.258 4
6 2 4 2832.21 325.216 3
6 2 5 330.986 128.344 3
6 -2 5 285.716 157.722 3
-6 -2 5 449.166 190.693 4
-6 2 5 287.546 98.8664 4
6 2 6 4226.99 461.864 1
-6 -2 6 3506.16 453.356 4
-6 2 6 3588.05 336.43 4
6 2 6 4030.69 376.039 3
6 -2 6 4540.56 504.373 3
6 2 7 5416.74 523.648 1
6 -2 7 5158.68 454.094 1
-6 -2 7 4508.64 522.931 4
-6 2 7 4895.55 421.418 4
6 2 7 5311.99 432.402 3
6 -2 7 6054.68 596.88 3
6 -2 8 -120.086 123.439 3
6 2 8 62.929 109.611 1
6 -2 8 41.2929 69.6705 1
-6 -2 8 -1.81495 116.5 4
-6 2 8 262.645 130.884 4
6 2 9 2567.3 381.905 1
6 -2 9 1768.23 264.93 1
-6 -2 9 1527.09 339.14 4
-6 2 9 1823.19 316.188 4
6 -2 10 2691.02 335.636 1
6 2 10 2360.24 371.234 1
-6 -2 10 2024 397.59 4
6 -2 11 -68.1008 80.4918 1
6 2 11 472.917 192.275 1
6 -2 11 328.577 140.252 5
-6 -2 11 206.653 147.765 4
6 2 12 987.665 248.875 1
6 -2 12 1130.37 234.547 1
-6 -2 12 1133.83 319.168 4
6 -2 13 527.504 197.226 1
6 2 13 417.911 196.256 1
-6 -2 13 381.699 209.686 4
6 -2 14 -12.0442 71.8566 1
6 2 14 58.1717 92.0851 1
-6 -2 14 239.634 192.282 4
6 -3 -14 3380.95 622.399 3
-6 3 -13 640.762 238.772 2
-6 -3 -13 589.137 285.725 7
-6 3 -13 446.202 230.632 6
6 -3 -13 476.313 273.252 3
6 3 -13 331.202 191.622 3
-6 3 -12 935.499 274.779 2
-6 -3 -12 1042.74 321.579 7
-6 3 -12 904.251 257.183 6
6 -3 -12 1137.61 351.676 3
6 3 -12 897.429 275.909 3
-6 3 -11 60.4548 106.449 2
-6 -3 -11 189.019 173.279 7
-6 3 -11 353.486 181.035 6
6 -3 -11 -134.632 163.597 3
6 3 -11 207.909 159.944 3
-6 3 -10 1806.13 340.021 2
-6 -3 -10 1805.98 355.074 7
-6 3 -10 1638.56 319.103 6
6 -3 -10 1674.65 376.415 3
6 -3 -10 1724.55 272.444 5
6 3 -10 1353.64 317.021 3
-6 -3 -9 -41.6029 95.6921 7
-6 3 -9 376.981 198.186 2
-6 3 -9 186.006 140.495 6
6 -3 -9 145.391 155.206 3
6 -3 -9 260.417 134.255 5
6 3 -9 63.8632 96.8443 3
-6 -3 -8 -171.72 144.105 7
-6 3 -8 -14.7225 99.6527 2
-6 3 -8 -65.3895 109.639 6
6 -3 -8 131.666 120.187 3
6 -3 -8 197.153 121.657 5
6 3 -8 379.409 180.712 3
6 -3 -7 2616.47 417.28 3
-6 -3 -7 2354.37 401.138 7
-6 3 -7 2567.47 356.291 6
6 -3 -7 2731.05 347.727 5
6 3 -7 2242.51 381.749 3
-6 3 -7 3618.96 474.616 2
-6 -3 -6 33.9803 142.001 7
-6 3 -6 267.151 165.295 2
-6 3 -6 -11.2605 107.673 6
6 -3 -6 401.718 181.107 3
6 3 -6 328.889 161.817 3
-6 -3 -5 636.552 207.101 7
-6 3 -5 625.524 206.674 2
6 -3 -5 532.181 184.078 3
6 3 -5 556.882 200.441 3
-6 -3 -4 2510.19 389.824 7
6 -3 -4 2251.09 355.133 3
-6 3 -4 2572.33 382.143 2
6 3 -4 2254.56 339.705 3
-6 -3 -3 10508.5 782.826 7
6 3 -3 9698.66 666.57 3
-6 -3 -3 10987.2 837.663 4
-6 3 -3 11046.6 798.794 2
6 -3 -3 9595.57 732.327 3
6 3 -2 32092.1 1183.57 3
-6 -3 -2 32946.1 1371.87 7
-6 -3 -2 35498.8 1524.84 4
-6 3 -2 34421.2 1420.08 2
6 -3 -2 32897.9 1377.03 3
-6 -3 -1 827.442 222.147 7
6 -3 -1 821.328 222.27 3
6 3 -1 845.065 186.817 3
-6 3 -1 1101.77 268.164 2
-6 -3 -1 860.698 234.483 4
-6 -3 0 216959 4144.08 4
-6 3 0 210581 3950.58 2
6 -3 0 196436 3711.88 3
6 3 0 193976 3184.2 3
-6 -3 0 186806 3548.97 7
6 -3 1 1008.66 254.626 3
6 3 1 823.567 167.08 3
-6 3 1 1117.23 267.516 2
-6 -3 1 942.219 252.793 4
-6 -3 2 33854.6 1522.93 4
-6 3 2 34445.6 1494.85 2
6 -3 2 33909.2 1394.88 3
6 3 2 33413.7 1057.09 3
-6 -3 3 10439.8 822.829 4
-6 3 3 10833.3 810.514 2
6 -3 3 11303.2 807.427 3
6 3 3 9721.6 521.364 3
6 -3 4 2380.92 375.972 3
6 3 4 2416.29 334.914 1
-6 -3 4 2640.72 428.551 4
6 3 4 1948.1 221.381 3
6 -3 5 779.424 218.043 3
6 3 5 748.05 204.815 1
-6 -3 5 530.757 213.319 4
6 -3 6 265.137 112.323 1
6 -3 6 538.945 234.374 3
6 -3 6 253.246 130.122 5
6 3 6 289.004 157.675 1
-6 -3 6 147.271 137.719 4
6 3 7 2278.82 365.986 1
6 -3 7 2216.01 272.955 1
6 -3 7 2512.11 388.051 3
6 -3 7 2849.8 336.115 5
-6 -3 7 2337.76 406.517 4
6 -3 8 236.989 154.087 3
6 -3 8 271.317 130.688 5
6 3 8 -31.0127 77.2957 1
-6 -3 8 35.2331 180.31 4
6 3 9 88.0472 116.362 1
6 -3 9 163.595 100.615 5
-6 -3 9 -54.9438 104.312 4
6 3 10 1863.62 336.704 1
6 -3 10 1827.62 271.207 5
-6 -3 10 1631.76 412.935 4
6 3 11 -31.7562 96.0315 1
-6 -3 11 193.04 195.049 4
-6 -3 12 755.639 329.275 4
6 3 12 1323.14 300.901 1
6 3 13 454.594 198.685 1
6 4 -12 160.352 126.221 3
-6 4 -11 717.527 248.643 6
6 4 -11 642.86 225.006 3
-6 -4 -10 40.0128 137.957 7
-6 4 -10 235.71 192.467 6
6 -4 -10 257.439 163.001 3
6 -4 -10 -183.526 128.196 5
6 4 -10 122.767 119.019 3
-6 4 -10 137.926 124.41 2
-6 -4 -9 20.4138 124.539 7
-6 4 -9 34.3002 94.3608 2
-6 4 -9 23.1177 120.016 6
6 -4 -9 201.115 155.021 3
6 -4 -9 -117.766 133.189 5
6 4 -9 -46.4483 109.162 3
-6 -4 -8 318.668 213.623 7
-6 4 -8 376.947 199.533 2
-6 4 -8 115.967 116.12 6
6 -4 -8 46.07 113.815 3
6 -4 -8 244.585 141.369 5
6 4 -8 -43.099 107.128 3
-6 -4 -7 46.7828 126.607 7
-6 4 -7 547.426 236.818 2
6 -4 -7 400.476 185.406 3
-6 4 -7 437.085 192.258 6
6 -4 -7 340.558 150.244 5
6 4 -7 620.174 201.997 3
-6 -4 -6 157.162 162.676 7
-6 4 -6 131.046 157.107 2
6 -4 -6 167.036 128.599 3
-6 4 -6 184.765 130.718 6
6 -4 -6 11.9989 101.825 5
6 4 -6 179.968 133.563 3
-6 -4 -5 73.3528 117.69 7
6 -4 -5 96.8001 92.2527 3
-6 4 -5 33.4984 91.3341 2
-6 4 -5 -198.146 153.029 6
6 -4 -5 -19.4765 83.4153 5
6 4 -5 -33.1063 77.1611 3
-6 -4 -4 107.428 101.912 7
6 -4 -4 -30.3573 139.623 3
-6 4 -4 -103.001 139.891 6
-6 4 -4 273.441 155.309 2
6 -4 -4 -148.865 115.023 5
6 -4 -3 131.161 109.635 3
-6 4 -3 -61.8333 151.177 2
6 -4 -3 176.557 96.7272 5
-6 -4 -2 331.732 175.035 7
6 -4 -2 432.104 189.029 3
-6 4 -2 304.409 215.435 2
6 -4 -2 361.197 185.505 5
-6 -4 -2 198.327 147.855 4
-6 -4 -1 4470.18 541.504 7
6 -4 -1 4855.12 481.55 5
-6 -4 -1 4464.75 579.812 4
-6 4 -1 4550.01 565.774 2
6 -4 -1 4158.27 498.686 3
6 -4 0 999.834 254.492 3
6 -4 0 999.815 220.956 5
-6 4 0 906.831 255.374 2
-6 -4 0 1458.39 331.659 4
6 -4 1 5024.78 483.112 5
-6 -4 1 5049.33 638.725 4
-6 4 1 4724.85 587.79 2
6 -4 1 4291.34 502.15 3
6 -4 2 -45.5779 89.2103 5
-6 4 2 287.1 172.54 2
-6 -4 2 153.998 141.167 4
6 -4 2 268.427 148.115 3
6 4 2 203.024 120.141 1
6 -4 3 69.991 108.473 3
6 -4 3 -103.184 103.138 5
6 4 3 -73.5355 100.918 1
-6 4 3 -127.591 189.348 2
-6 -4 3 -138.343 136.333 4
6 -4 4 -44.4456 106.612 3
6 -4 4 61.6398 108.356 5
-6 4 4 96.7185 169.988 2
6 4 4 47.7844 82.222 1
-6 -4 4 69.4077 172.31 4
6 -4 5 292.586 186.909 3
6 4 5 -51.5836 91.8368 1
6 -4 5 4.08709 71.9757 5
-6 4 5 252.844 148.737 2
-6 -4 5 85.0818 149.804 4
6 -4 6 225.953 177.585 3
6 -4 6 85.8818 96.9814 5
-6 -4 6 35.6952 135.852 4
6 4 6 -16.3341 88.0891 1
6 -4 7 360.41 145.943 5
6 4 7 410.599 170.562 1
-6 -4 7 408.999 186.753 4
6 4 8 131.999 89.4372 1
6 -4 8 78.0419 82.1183 5
-6 -4 8 75.0603 103.958 4
6 4 9 65.839 142.22 1
6 -4 9 -7.29713 77.9379 5
-6 -4 9 -227.519 172.525 4
6 -4 10 12.2884 74.5581 5
-6 -4 10 -8.27957 115.655 4
6 4 10 235.508 91.5597 1
6 4 11 687.69 235.454 1
-6 5 -9 100.14 173.883 6
6 -5 -9 167.675 111.266 5
-6 5 -8 -145.998 109.099 6
6 -5 -8 119.712 142.509 5
-6 -5 -7 796.53 277.658 7
-6 5 -7 1187.36 330.323 2
-6 5 -7 1125.06 278.29 6
6 -5 -7 1480.64 322.671 5
-6 -5 -6 751.128 273.212 7
-6 5 -6 572.77 252.92 2
-6 5 -6 461.384 180.898 6
6 -5 -6 1030.16 279.603 5
-6 -5 -5 154.177 118.198 7
-6 5 -5 441.3 198.128 2
-6 5 -5 464.921 199.445 6
6 -5 -5 596.864 207.606 5
-6 -5 -4 993.581 310.54 7
-6 5 -4 966.923 242.248 6
-6 5 -4 1067.29 328.014 2
6 -5 -4 1044.61 265.765 5
-6 -5 -3 6.70607 130.777 7
-6 5 -3 -15.7687 151.299 2
6 -5 -3 -133.323 142.429 5
6 -5 -2 3718.3 473.554 5
-6 5 -2 3711.07 571.869 2
6 -5 -2 4305.09 524.612 3
6 -5 -1 34.3936 95.5789 3
-6 5 -1 -39.2569 166.444 2
6 -5 -1 -114.161 140.302 5
-6 -5 -1 -111.024 179.385 4
6 -5 0 8731.75 726.421 5
-6 -5 0 9844.24 932.413 4
-6 5 0 10087.2 927.351 2
6 -5 0 8668.98 737.075 3
6 -5 1 130.129 134.32 3
6 -5 1 101.344 122.411 5
-6 5 1 54.637 117.235 2
-6 -5 1 286.067 197.007 4
6 -5 2 3488.02 445.84 5
-6 -5 2 3832.14 578.302 4
-6 5 2 4789.09 658.148 2
6 -5 2 4240.15 517.458 3
6 -5 3 76.6393 185.561 3
6 -5 3 -25.061 81.755 5
-6 5 3 -175.656 182.863 2
-6 -5 3 -43.9845 136.969 4
6 5 3 66.5706 92.5952 1
6 -5 4 1572.73 341.321 3
6 -5 4 1283.38 271.708 5
-6 5 4 1151.24 330.133 2
6 5 4 1004.41 220.13 1
-6 -5 4 1147.46 327.247 4
6 -5 5 613.829 214.405 3
6 5 5 471.238 175.911 1
6 -5 5 276.175 129.937 5
-6 5 5 501.462 236.606 2
-6 -5 5 274.293 183.687 4
6 5 6 647.929 193.249 1
6 -5 6 169.451 104.798 5
-6 5 6 783.694 261.291 2
-6 -5 6 711.398 279.17 4
6 5 7 1030.39 238.394 1
6 -5 7 734.704 220.912 5
-6 5 7 1057.02 294.81 2
-6 -5 7 811.932 298.674 4
6 -5 8 -455.906 225.038 5
6 5 8 -343.05 194.543 1
6 -5 9 29.7215 115.028 5
6 5 9 -141.854 148.464 1
6 -5 10 284.23 190.431 5
6 5 10 317.604 159.059 1
-7 0 -14 -226.699 150.77 7
7 0 -14 76.9268 157.545 3
-7 0 -13 35.4043 117.176 7
7 0 -13 62.171 98.3913 3
-7 0 -13 15.7237 112.999 2
-7 0 -12 94.6293 154.783 7
7 0 -12 129.326 152.942 3
-7 0 -12 127.247 115.829 2
-7 0 -11 216.313 155.984 7
7 0 -11 268.697 143.413 3
-7 0 -11 71.279 80.8091 2
-7 0 -10 412.478 233.835 7
7 0 -10 114.643 163.481 3
-7 0 -10 137.597 115.883 2
-7 0 -9 358.895 193.92 7
7 0 -9 133.426 165.036 3
-7 0 -9 151.386 114.449 2
-7 0 -8 16.7847 96.9606 7
7 0 -8 125.128 199.529 3
-7 0 -8 -5.21582 81.7861 2
-7 0 -7 175.717 109.966 2
-7 0 -7 189.218 119.353 7
7 0 -7 73.1985 122.8 3
-7 0 -6 -31.228 86.2688 7
-7 0 -6 -4.77207 47.749 2
-7 0 -5 43.4967 78.6672 7
-7 0 -5 84.1002 87.5147 2
7 0 -5 112.46 82.132 3
-7 0 -4 12.0497 72.1607 7
-7 0 -4 78.3182 74.1288 2
7 0 -4 -32.5319 75.6176 3
-7 0 -3 90.7555 90.812 7
-7 0 -3 84.9386 84.3904 2
7 0 -3 96.1404 139.036 3
-7 0 -2 47.9219 79.8852 7
-7 0 -2 69.939 72.8991 2
7 0 -2 134.761 117.655 3
-7 0 -2 143.162 113.921 4
-7 0 -1 37.0477 65.9615 7
7 0 -1 -8.1065 70.4925 3
-7 0 -1 -70.4188 80.7438 2
-7 0 -1 80.0001 88.1572 4
-7 0 0 19.2238 44.5614 7
7 0 0 42.6936 63.2344 3
-7 0 0 38.6277 92.4725 2
-7 0 0 -33.6592 70.2333 4
-7 0 1 -39.4875 49.6463 7
7 0 1 34.2412 104.64 3
-7 0 1 36.5327 67.558 2
-7 0 1 19.0272 101.37 4
-7 0 2 120.309 59.5978 7
7 0 2 65.9493 137.468 3
-7 0 2 269.407 147.942 4
7 0 3 -100.518 118.444 3
-7 0 3 185.738 121.717 4
7 0 4 20.8434 82.0515 3
-7 0 4 158.656 140.563 4
7 0 5 378.186 216.519 3
-7 0 5 128.529 116.538 4
7 0 6 56.7805 142.242 3
-7 0 6 52.7659 96.6602 4
7 0 7 95.8108 150.174 3
7 0 7 -53.151 95.3025 1
-7 0 7 14.8058 112.169 4
7 0 8 -101.343 87.5617 3
7 0 8 94.0507 126.11 1
-7 0 8 -122.828 81.7307 4
7 0 9 272.421 174.301 3
7 0 9 -87.4644 96.8568 1
-7 0 9 129.472 176.563 4
-7 0 10 -20.6097 91.6187 4
7 0 10 -46.8171 85.8424 1
7 0 11 -66.7608 104.599 1
-7 0 11 149.405 106.743 4
7 0 12 -84.9534 113.09 1
-7 0 12 20.8927 117.996 4
7 0 13 -16.2816 87.651 1
-7 0 13 160.146 197.929 4
7 0 14 25.3364 98.2328 1
-7 0 14 -75.4023 145.011 4
-7 1 -15 204.211 148.1 2
-7 1 -14 819.959 289.409 7
-7 -1 -14 754.787 274.622 7
7 -1 -14 399.388 257.701 3
7 1 -14 191.391 198.869 3
-7 1 -14 421.235 177.88 2
-7 -1 -13 186.206 141.303 7
7 -1 -13 84.2655 180.861 3
7 1 -13 -90.5973 99.6882 3
-7 1 -13 43.3181 85.892 2
7 -1 -12 3834.42 601.806 3
7 1 -12 3800.4 561.479 3
-7 1 -12 4209.02 462.549 2
-7 1 -12 5364.38 578.036 7
-7 -1 -12 4786.7 590.818 7
-7 -1 -11 932.659 231.311 7
7 -1 -11 962.622 284.046 3
7 1 -11 1322.89 355.391 3
-7 1 -11 1284.86 261.601 2
-7 -1 -10 1824.93 330.4 7
7 -1 -10 2593.65 482.014 3
7 1 -10 2259.53 431.936 3
-7 1 -10 2658.33 354.727 2
7 -1 -9 5554.24 676.11 3
7 1 -9 5293.36 641.608 3
-7 1 -9 5610.87 482.08 2
-7 -1 -9 4851.82 515.927 7
-7 -1 -8 178.218 97.8093 7
-7 1 -8 179.804 97.7484 2
7 -1 -8 275.641 177.818 3
7 1 -8 494.573 205.01 3
-7 -1 -8 505.962 119.573 2
-7 -1 -7 1469.02 257.411 7
-7 1 -7 1707.46 266.374 2
7 -1 -7 1558.75 357.102 3
7 1 -7 2111.75 385.194 3
-7 -1 -7 1992.72 207.62 2
-7 -1 -6 1539.35 268.545 7
-7 1 -6 1088.3 217.755 2
7 -1 -6 1610.37 346.241 3
7 1 -6 1549.71 327.585 3
-7 -1 -6 1470.34 165.062 2
-7 -1 -5 604.794 194.69 7
-7 1 -5 635.771 152.317 2
7 -1 -5 602.295 220.728 3
7 1 -5 778.927 242.769 3
-7 -1 -5 408.221 86.5607 2
-7 -1 -4 167.808 111.33 7
-7 1 -4 48.9748 92.8575 2
7 -1 -4 236.535 163.326 3
7 1 -4 71.8865 138.028 3
-7 -1 -4 35.0729 38.0203 2
-7 -1 -3 1434.82 244.942 7
-7 1 -3 1407.22 234.547 2
7 -1 -3 1361.98 294.621 3
7 1 -3 1611.09 298.834 3
-7 -1 -3 1333.87 119.652 2
-7 1 -2 356.591 111.139 7
-7 -1 -2 197.766 45.6941 2
-7 -1 -2 339.639 128.758 7
7 -1 -2 140.013 103.47 3
7 1 -2 355.624 148.756 3
-7 1 -2 349.232 125.233 2
-7 -1 -2 345.226 149.712 4
-7 1 -1 876.828 135.13 7
-7 -1 -1 646.279 147.741 7
-7 -1 -1 656.431 79.134 2
7 -1 -1 908.498 235.667 3
7 1 -1 826.334 213.699 3
-7 1 -1 969.367 203.134 2
-7 -1 -1 803.892 229.232 4
-7 -1 0 1699.35 243.906 7
7 -1 0 1534.11 289.707 3
7 1 0 1340.81 256.449 3
-7 1 0 1714.11 275.993 2
-7 1 0 1585.28 156.838 7
-7 1 0 1644.12 217.665 4
-7 -1 0 1719.88 289.395 4
-7 -1 0 1607.01 137.26 2
-7 1 1 715.458 96.6297 7
-7 -1 1 1205.99 209.639 7
7 -1 1 890.835 238.688 3
7 1 1 767.291 196.212 3
-7 -1 1 731.127 112.479 2
-7 1 1 581.45 154.225 2
-7 1 1 547.347 134.532 4
-7 -1 1 797.858 202.231 4
-7 1 2 103.649 35.0128 7
-7 -1 2 377.29 130.441 7
7 -1 2 72.3945 113.654 3
7 1 2 289.485 131.37 3
-7 -1 2 227.155 88.301 2
-7 1 2 270.909 132.37 2
-7 -1 2 376.936 164.512 4
-7 1 2 129.003 95.0328 4
7 -1 3 1326.93 312.299 3
7 1 3 1721.56 317.215 3
-7 -1 3 1686.94 313.105 4
-7 1 3 1529.33 250.193 4
7 -1 4 184.934 139.968 3
7 1 4 -79.9571 113.505 3
-7 -1 4 295.29 141.822 4
-7 1 4 121.76 95.5289 4
7 -1 5 769.83 267.617 3
7 1 5 359.44 179.337 3
-7 -1 5 404.639 203.553 4
-7 1 5 342.195 130.359 4
7 1 6 1584.02 295.485 3
7 -1 6 1611.19 328.164 3
-7 -1 6 1056.86 239.8 4
-7 1 6 1201.31 219.402 4
7 1 7 2045.48 335.1 3
7 -1 7 2162.68 375.465 3
7 1 7 2130.61 371.283 1
7 -1 7 2190.48 350.065 1
-7 -1 7 1761.19 343.424 4
-7 1 7 1634.68 276.277 4
7 -1 8 264.046 108.216 1
7 1 8 727.844 215.474 3
7 -1 8 304.055 155.467 3
-7 -1 8 982.412 279.284 4
-7 1 8 524.259 195.217 4
7 1 8 289.492 146.718 1
7 1 9 6091.44 612.266 1
7 -1 9 5682.41 550.285 1
-7 -1 9 4944.4 579.078 4
-7 1 9 4748.81 494.271 4
7 -1 9 6451.27 656.753 3
7 -1 10 2904.41 400.829 1
-7 -1 10 2264.68 422.738 4
-7 1 10 2161.02 359.054 4
7 1 10 2468.46 410.206 1
7 -1 11 715.434 192.32 1
7 1 11 1294.3 284.511 1
-7 -1 11 841.753 257.625 4
-7 1 11 610.689 207.051 4
7 -1 12 4026.5 488.724 1
7 1 12 4441.42 557.808 1
-7 -1 12 3603.72 549.936 4
-7 1 12 3629.52 509.47 4
7 1 13 -144.443 139.699 1
-7 -1 13 154.796 184.808 4
-7 1 13 -97.0472 115.51 4
7 -1 13 -7.58893 100.109 1
7 -1 14 601.321 211.892 1
-7 -1 14 479.368 268.16 4
7 1 14 524.464 226.566 1
-7 1 14 314.675 157.227 4
7 -1 15 91.7313 150.251 1
-7 1 15 -19.9515 144.575 4
7 -2 -14 514.057 257.544 3
-7 2 -14 259.425 163.566 2
-7 -2 -13 332.263 229.716 7
7 -2 -13 9.26254 158.556 3
7 2 -13 277.657 151.909 3
-7 2 -13 548.932 242.012 2
-7 2 -12 2036.25 362.574 2
-7 -2 -12 1497.69 389.547 7
7 -2 -12 2173.02 459.686 3
7 2 -12 1034.16 296.182 3
-7 2 -11 327.45 153.637 2
-7 -2 -11 424.628 196.148 7
7 -2 -11 432.423 227.845 3
7 2 -11 426.779 233.288 3
-7 2 -10 1306.16 287.572 2
-7 -2 -10 1007.28 276.096 7
7 -2 -10 1043.94 312.087 3
7 2 -10 1315.93 347.467 3
-7 -2 -9 905.528 263.598 7
-7 2 -9 813.434 220.488 2
7 -2 -9 776.715 236.843 3
7 2 -9 919.637 275.256 3
-7 -2 -8 12.9725 91.8726 7
-7 2 -8 2.9924 93.8288 2
7 -2 -8 -59.9165 108.267 3
7 2 -8 94.7684 173.19 3
-7 -2 -7 541.33 205.862 7
-7 2 -7 554.237 132.285 2
7 -2 -7 390.481 157.15 3
7 2 -7 412.074 177.007 3
-7 -2 -6 -10.6499 109.448 7
-7 2 -6 -59.0173 93.7862 2
7 -2 -6 -108.006 130.984 3
7 2 -6 166.709 146.642 3
-7 -2 -5 1791.24 312.598 7
-7 2 -5 1995.73 350.505 2
7 -2 -5 1689.32 348.189 3
7 2 -5 1860 337.646 3
-7 -2 -4 2200.45 344.385 7
-7 2 -4 2290.93 341.811 2
7 -2 -4 2165.52 375.165 3
7 2 -4 2191.31 359.109 3
-7 -2 -3 710.316 187.096 7
7 -2 -3 716.364 218.726 3
-7 2 -3 1189.04 235.678 2
7 2 -3 571.421 149.031 3
-7 -2 -3 1186.23 281.98 4
7 2 -2 7476.98 609.568 3
-7 -2 -2 8870.31 651.233 7
-7 -2 -2 9416.58 745.03 4
-7 2 -2 9532.01 706.382 2
7 -2 -2 8642.65 722.592 3
7 2 -1 12347.8 762.658 3
-7 -2 -1 12363 752.734 7
7 -2 -1 13768.9 903.949 3
-7 -2 -1 14536.4 940.895 4
-7 2 -1 13837 860.531 2
-7 -2 0 12399.3 733.075 7
-7 -2 0 13578.6 924.129 4
-7 2 0 13921.8 869.153 2
7 -2 0 11680.5 838.518 3
7 2 0 12076.1 751.239 3
-7 -2 1 13186.2 743.02 7
7 2 1 13607.5 815.172 3
-7 -2 1 13983.3 941.774 4
-7 2 1 14667.3 907.64 2
7 -2 1 14120.4 918.943 3
-7 2 2 9578.5 440.321 4
-7 -2 2 9516.91 778.942 4
-7 2 2 9322.31 727.787 2
7 -2 2 9049.88 746.745 3
7 2 2 9819.71 696.007 3
7 -2 3 706.996 204.323 3
7 2 3 830.395 213.396 3
-7 2 3 820.312 214.596 2
-7 -2 3 753.682 192.838 4
-7 2 3 694.91 141.236 4
7 -2 4 2418.91 392.806 3
-7 2 4 2139.97 252.571 4
-7 -2 4 2418.21 401.385 4
7 2 4 2428.36 340.406 3
7 -2 5 2080.74 377.451 3
-7 -2 5 2435.19 416.874 4
-7 2 5 1406.65 215.816 4
7 2 5 2045.71 303.528 3
7 2 6 -75.255 101.824 1
7 2 6 90.5144 97.2421 3
7 -2 6 -52.2847 104.862 3
-7 -2 6 -63.2299 89.8651 4
-7 2 6 44.7555 71.3692 4
7 2 7 405.727 187.934 1
7 -2 7 485.766 158.269 1
7 2 7 633.57 172.528 3
7 -2 7 392.598 174.977 3
-7 -2 7 459.079 185.117 4
-7 2 7 377.02 125.232 4
7 -2 8 -6.89215 116.516 3
7 2 8 27.1529 94.701 1
7 -2 8 -77.9959 103.26 1
-7 -2 8 182.999 174.956 4
-7 2 8 31.21 69.6201 4
7 -2 9 998.618 225.931 1
7 2 9 900.179 248.114 1
7 -2 9 1022.16 276.343 3
-7 -2 9 778.957 304.368 4
-7 2 9 830.949 228.665 4
7 -2 10 1479.79 271.537 1
7 2 10 1053.87 278.726 1
-7 -2 10 1525.56 376.976 4
-7 2 10 921.333 257.385 4
7 -2 11 302.579 165.98 1
7 2 11 33.6662 133.125 1
-7 -2 11 434.286 229.499 4
-7 2 11 319.182 183.464 4
7 2 12 1693.04 346.052 1
-7 -2 12 1437.29 397.084 4
-7 2 12 1164.86 276.223 4
7 -2 12 1792.04 302.824 1
7 -2 13 246.224 146.444 1
-7 -2 13 555.87 282.222 4
-7 2 13 514.285 226.203 4
7 2 13 -29.4372 91.4619 1
-7 2 14 471.893 249.652 4
-7 2 15 53.972 152.915 4
7 -3 -13 741.111 311.016 3
-7 3 -12 232.639 180.606 2
7 -3 -12 85.4469 167.87 3
-7 -3 -11 15.5994 144.879 7
-7 3 -11 157.469 161.384 2
7 -3 -11 -64.9759 130.004 3
7 3 -11 -115.923 84.3726 3
-7 3 -10 675.902 240.216 2
-7 -3 -10 681.833 258.276 7
7 -3 -10 884.263 313.98 3
7 -3 -10 1059.62 235.476 5
7 3 -10 707.026 252.961 3
-7 -3 -9 407.293 192.232 7
-7 3 -9 899.335 256.319 2
7 -3 -9 622.354 278.946 3
7 -3 -9 1080.29 241.997 5
7 3 -9 896.452 271.329 3
-7 -3 -8 425.639 180.588 7
-7 3 -8 405.65 203.414 2
7 -3 -8 126.801 130.66 3
7 3 -8 215.218 138.472 3
-7 -3 -7 -148.376 140.019 7
-7 3 -7 77.4805 149.544 2
7 -3 -7 43.2869 79.556 3
7 3 -7 34.9034 161.291 3
-7 -3 -6 1136.18 295.379 7
-7 3 -6 991.139 261.537 2
7 -3 -6 1095.18 289.934 3
7 3 -6 1181.51 296.204 3
-7 -3 -5 -7.83598 90.2568 7
-7 3 -5 343.329 184.758 2
7 -3 -5 131.277 125.275 3
7 3 -5 272.259 146.565 3
-7 -3 -4 1433.12 314.583 7
7 -3 -4 1491.87 306.959 3
-7 3 -4 1347.49 286.172 2
7 3 -4 1258.42 284.933 3
-7 -3 -3 138.89 141.512 7
7 -3 -3 -117.099 170.365 3
-7 3 -3 212.162 161.55 2
7 3 -3 245.434 126.703 3
-7 -3 -3 319.737 192.234 4
7 3 -2 4608.57 478.545 3
-7 -3 -2 4784 543.504 7
-7 -3 -2 5913.12 652.172 4
-7 3 -2 4489.93 536.055 2
7 -3 -2 4367.78 541.276 3
-7 -3 -1 11230.4 817.148 7
-7 -3 -1 13295.1 979.323 4
-7 3 -1 12654.4 915.478 2
7 -3 -1 10976.5 848.444 3
7 3 -1 10906.6 712.074 3
-7 -3 0 1767.26 329.382 7
7 -3 0 2025.16 373.345 3
-7 3 0 2121.5 369.808 2
-7 -3 0 1321.29 286.898 4
7 3 0 2189.78 314.082 3
-7 -3 1 12438.7 963.481 4
-7 3 1 13091.8 955.076 2
7 -3 1 11373.3 846.757 3
7 3 1 11835 719.277 3
-7 -3 2 5207.19 621.035 4
-7 3 2 5120.88 593.439 2
7 -3 2 4868.18 556.546 3
7 3 2 4652.94 432.849 3
7 -3 3 299.363 170.634 3
7 3 3 167.436 51.6807 3
-7 3 3 157.185 148.67 2
-7 -3 3 152.991 124.101 4
7 -3 4 1853.3 372.705 3
-7 3 4 1542.41 347.146 2
-7 -3 4 1425.61 346.243 4
7 -3 5 80.9707 122 3
7 3 5 168.871 161.407 1
-7 -3 5 322.38 188.899 4
7 -3 6 1294.49 302.805 3
-7 -3 6 942.849 288.21 4
7 -3 6 1075.74 225.793 1
7 3 6 1153.47 270.68 1
7 3 7 -73.4861 71.8826 1
-7 -3 7 -12.489 118.599 4
7 -3 8 336.575 198.651 3
7 -3 8 249.069 153.629 5
-7 -3 8 335.959 212.083 4
7 3 8 259.572 164.777 1
7 -3 9 1157.82 233.839 5
7 3 9 793.335 240.972 1
-7 -3 9 1004.78 343.503 4
7 3 10 1112.55 285.715 1
7 -3 10 1058.74 225.526 5
-7 -3 10 815.785 291.362 4
7 3 11 75.6711 124.657 1
-7 -3 11 182.656 213.965 4
7 4 -12 35.403 138.864 3
7 4 -11 366.397 202.049 3
7 -4 -10 857.404 293.96 3
7 -4 -10 663.553 206.349 5
7 4 -10 1167.13 311.225 3
-7 -4 -9 -277.528 196.241 7
-7 4 -9 23.0805 112.647 2
7 -4 -9 -68.8264 141.946 3
7 -4 -9 47.8447 122.226 5
7 4 -9 63.7646 91.294 3
-7 -4 -8 87.0478 152.067 7
-7 4 -8 -195.17 174.053 2
7 -4 -8 -54.1089 83.7222 3
7 -4 -8 -43.5591 83.48 5
-7 -4 -7 1247.09 349.455 7
-7 4 -7 876.818 253.507 2
7 -4 -7 358.552 182.913 3
7 -4 -7 828.96 225.337 5
-7 -4 -6 1123.23 313.84 7
-7 4 -6 1068.74 289.163 2
7 -4 -6 679.087 229.418 3
7 -4 -6 1195.96 261.085 5
-7 -4 -5 518.636 239.535 7
7 -4 -5 713.91 232.381 3
-7 4 -5 354.4 190.771 2
7 -4 -5 1023.42 260.828 5
-7 -4 -4 198.376 135.103 7
7 -4 -4 163.864 129.013 3
-7 4 -4 232.366 179.491 2
7 -4 -4 437.543 196.229 5
-7 -4 -3 408.978 181.255 7
7 -4 -3 149.44 110.191 3
-7 4 -3 329.719 167.403 2
7 -4 -3 551.167 202.682 5
-7 -4 -2 182.336 132.962 7
7 -4 -2 109.74 155.458 3
-7 4 -2 23.5202 108.284 2
7 -4 -2 212.28 171.6 5
-7 -4 -2 366.521 216.605 4
-7 -4 -1 10074.3 834.892 7
7 -4 -1 9396.03 707.136 5
-7 -4 -1 10661.7 955.744 4
-7 4 -1 9930.7 892.036 2
7 -4 -1 9502.19 799.868 3
7 -4 0 718.095 223.22 3
7 -4 0 902.134 229.449 5
-7 4 0 764.852 247.243 2
-7 -4 0 1029.89 311.882 4
7 -4 1 9056.42 685.311 5
-7 -4 1 10169.8 928.22 4
-7 4 1 9784.84 885.402 2
7 -4 1 9224.08 795.808 3
7 -4 2 344.774 199.375 3
7 -4 2 482.451 201.676 5
-7 4 2 58.7686 124.057 2
-7 -4 2 -41.8007 166.137 4
7 -4 3 920.107 281.126 3
7 -4 3 620.242 188.54 5
-7 4 3 453.363 217.148 2
-7 -4 3 264.83 149.382 4
7 4 3 402.603 164.098 1
7 4 4 80.9745 64.3604 1
7 -4 4 294.075 200.034 3
7 -4 4 20.132 74.0971 5
-7 4 4 236.639 171.498 2
-7 -4 4 257.166 158.818 4
7 -4 5 470.074 222.261 3
7 -4 5 341.515 160.038 5
7 4 5 391.052 153.566 1
-7 4 5 363.982 187.991 2
-7 -4 5 357.089 199.39 4
7 -4 6 1221.86 308.65 3
7 4 6 734.717 172.927 1
7 -4 6 1209.4 238.952 5
-7 4 6 931.353 274.133 2
-7 -4 6 1110.29 335.337 4
7 -4 7 928.034 288.62 3
7 -4 7 882.562 216.329 5
-7 -4 7 1129.24 343.858 4
7 4 7 591.102 223.602 1
7 -4 8 -64.7676 88.8867 5
7 4 8 -136.153 102.784 1
-7 -4 8 -0.98485 152.516 4
7 4 9 -56.7723 119.419 1
7 -4 9 55.1726 116.446 5
-7 -4 9 -103.721 159.663 4
7 4 10 840.66 222.958 1
7 -4 10 746.722 197.242 5
7 -5 -8 -84.1175 143.627 5
7 -5 -7 638.914 222.232 5
7 -5 -6 602.746 199.269 5
-7 -5 -5 -57.3781 201.567 7
7 -5 -5 -98.0599 140.114 5
-7 -5 -4 -267.353 272.544 7
-7 5 -4 327.143 215.223 2
7 -5 -4 180.337 156.18 5
-7 -5 -3 344.431 229.186 7
7 -5 -3 156.967 153.458 3
-7 5 -3 85.7837 129.726 2
7 -5 -3 3.92519 110.039 5
7 -5 -2 507.436 200.86 3
-7 5 -2 602.655 255.527 2
7 -5 -2 453.421 204.454 5
7 -5 -1 1488.44 335.738 3
-7 5 -1 1064.27 293.357 2
7 -5 -1 1102.47 286.908 5
-7 -5 -1 1522.33 384.86 4
7 -5 0 187.228 161.244 3
7 -5 0 -31.9313 152.735 5
-7 5 0 -248.335 243.783 2
-7 -5 0 166.409 220.16 4
7 -5 1 871.345 241.146 3
7 -5 1 742.409 213.676 5
-7 5 1 1363.38 401.817 2
-7 -5 1 1707.84 433.689 4
7 -5 2 132.554 139.404 3
7 -5 2 -3.75995 140.242 5
-7 5 2 248.409 219.451 2
-7 -5 2 532.981 264.094 4
7 -5 3 84.161 156.014 3
7 5 3 -58.4548 69.7661 1
7 -5 3 -149.574 114.66 5
-7 5 3 -164.427 161.942 2
-7 -5 3 129.001 188.973 4
7 -5 4 187.121 153.075 3
7 -5 4 144.351 91.2434 5
-7 5 4 20.0182 106.376 2
-7 -5 4 -11.3207 203.178 4
7 5 4 90.8348 95.5595 1
7 -5 5 274.593 207.114 3
7 -5 5 126.717 135.315 5
7 5 5 83.2988 97.9824 1
-7 -5 5 -5.4664 200.239 4
7 5 6 883.029 223.635 1
7 -5 6 709.111 209.312 5
7 5 7 650.281 195.018 1
7 -5 7 936.481 261.456 5
7 5 8 103.559 115.972 1
7 -5 8 -358.164 204.06 5
-8 0 -13 162.819 131.203 7
-8 0 -12 422.776 201.545 7
8 0 -12 88.1723 168.724 3
-8 0 -11 370.165 159.157 7
8 0 -11 -12.0172 157.052 3
8 0 -10 23614.9 1480.85 3
-8 0 -10 24374.3 981.049 2
-8 0 -10 24225.6 1215.6 7
8 0 -9 8452.15 864.478 3
-8 0 -9 8060.04 530.83 2
-8 0 -9 7969.77 660.519 7
8 0 -8 14895 1131.96 3
-8 0 -8 14510 688.96 2
-8 0 -8 13355.7 820.9 7
-8 0 -7 501.226 142.953 2
-8 0 -7 485.063 159.457 7
8 0 -7 642.193 218.228 3
-8 0 -6 243.203 101.697 2
-8 0 -6 281.9 126.936 7
8 0 -6 151.419 151.916 3
-8 0 -5 364.455 126.385 7
-8 0 -5 399.743 109.287 2
8 0 -5 273.143 155.869 3
8 0 -4 4125.45 538.882 3
-8 0 -4 4319.03 336.17 2
-8 0 -4 3780.59 367.323 7
-8 0 -3 336.746 112.074 7
-8 0 -3 583.143 121.848 2
8 0 -3 745.859 230.543 3
-8 0 -2 523.473 142.822 7
-8 0 -2 364.87 78.735 2
8 0 -2 229.848 144.631 3
-8 0 -1 17314 880.437 4
-8 0 -1 17686.9 735.828 2
8 0 -1 14600.7 928.935 3
-8 0 -1 17609.8 730.663 7
-8 0 0 9794.82 507.031 7
-8 0 0 10366.3 689.776 4
-8 0 0 10189.5 576.967 2
8 0 0 9131.5 755.813 3
-8 0 1 15732.7 595.418 7
-8 0 1 17230.7 915.997 4
-8 0 1 17494.1 784.853 2
8 0 1 15428.5 997.52 3
8 0 2 356.725 144.328 3
-8 0 2 336.742 143.569 2
-8 0 2 149.518 95.8142 4
8 0 3 1089.61 293.757 3
-8 0 3 556.79 184.356 4
-8 0 4 3963.83 455.69 4
8 0 4 4008.65 528.329 3
8 0 5 546.508 208.709 3
-8 0 5 541.199 178.856 4
8 0 6 186.605 170.597 3
-8 0 6 180.383 123.247 4
8 0 7 704.546 246.219 3
-8 0 7 544.772 205.047 4
8 0 8 15616.2 1047.91 1
-8 0 8 13776.1 920.578 4
8 0 8 17045.7 1113.6 3
8 0 9 9263.9 799.92 1
-8 0 9 7585.92 703.941 4
8 0 9 9900.26 844.964 3
8 0 10 25542.2 1333.83 1
-8 0 10 21037.7 1238.53 4
8 0 11 57.4269 142.675 1
-8 0 11 86.3469 102.757 4
8 0 12 214.091 159.418 1
-8 0 12 63.1562 140.82 4
8 0 13 626.71 233.357 1
-8 0 13 299.716 146.748 4
-8 0 14 1006.91 328.024 4
-8 1 -14 230.308 136.577 2
-8 1 -13 34.9471 131.771 7
-8 -1 -13 -311.129 247.552 7
-8 1 -13 11.2586 84.3678 2
-8 1 -12 588.02 219.11 7
-8 -1 -12 573.563 216.791 7
8 -1 -12 1057.27 354.756 3
8 1 -12 533.122 233.422 3
-8 1 -12 896.076 231.213 2
8 -1 -11 4372 650.72 3
-8 1 -11 4755.42 536.525 7
8 1 -11 3548.8 575.692 3
-8 1 -11 4795.27 481.534 2
-8 -1 -11 4612 583.051 7
8 1 -10 3667.07 585.476 3
-8 -1 -10 2675.08 427.074 7
8 -1 -10 3720.29 598.75 3
-8 1 -10 3980.34 432.19 2
-8 1 -10 3919.97 473.307 7
8 -1 -9 5328.85 701.481 3
8 1 -9 5191.27 685.178 3
-8 -1 -9 4179.14 499.09 7
-8 1 -9 4917.04 465.836 2
-8 1 -9 5238.84 512.311 7
-8 1 -8 570.56 185.115 7
-8 -1 -8 494.313 186.509 7
-8 1 -8 403.685 130.156 2
8 -1 -8 141.233 196.684 3
8 1 -8 32.038 115.972 3
8 -1 -7 3753.06 563.131 3
8 1 -7 4165.47 577.014 3
-8 1 -7 3750.12 391.777 2
-8 1 -7 3378.75 374.019 7
-8 -1 -7 2751.29 386.097 7
-8 1 -6 415.598 157.846 7
-8 -1 -6 168.96 103.291 7
-8 1 -6 -44.6448 71.3227 2
8 -1 -6 0.56584 157.421 3
8 1 -6 179.095 162.405 3
-8 1 -5 276.571 124.588 7
-8 -1 -5 310.158 136.017 7
-8 1 -5 -71.8599 107.17 2
8 -1 -5 133.329 108.683 3
8 1 -5 -20.4662 80.3367 3
-8 -1 -4 7619.75 596.368 7
8 -1 -4 7854.26 745.578 3
8 1 -4 7473.52 706.797 3
-8 1 -4 9507.57 625.599 2
-8 1 -4 8074.53 497.076 7
-8 -1 -3 15822.6 832.513 7
8 1 -3 15995.8 997.68 3
-8 1 -3 17780.5 868.017 2
-8 1 -3 15586.9 654.549 7
8 -1 -3 16063.3 1045.06 3
-8 -1 -2 2182.32 299.12 7
8 -1 -2 1854.1 350.748 3
8 1 -2 2109.13 354.267 3
-8 1 -2 2272.53 317.138 2
-8 -1 -2 2389.85 366.735 4
-8 1 -2 2142.5 230.742 7
-8 -1 -1 3315.57 360.032 7
-8 -1 -1 3862.96 456.725 4
-8 1 -1 3617.42 401.813 2
8 -1 -1 3434.86 478.958 3
-8 1 -1 2995.69 257.46 7
8 1 -1 2956.3 406.085 3
-8 -1 0 2129.77 278.667 7
8 -1 0 2413.44 397.532 3
8 1 0 2057.53 347.018 3
-8 1 0 2199.42 312.004 2
-8 1 0 2296.47 273.867 4
-8 -1 0 2402.05 368.207 4
-8 1 0 2133.98 203.575 7
-8 -1 1 3483.96 343.372 7
-8 1 1 3623.39 358.197 4
-8 -1 1 3114.42 426.303 4
-8 1 1 3967.53 437.431 2
8 -1 1 3362.72 468.479 3
8 1 1 3844.83 478.576 3
-8 -1 2 2444.6 280.194 7
8 -1 2 2163.26 376.935 3
8 1 2 2425.55 391.713 3
-8 1 2 2487.02 313.177 4
-8 -1 2 2081.28 350.795 4
-8 1 2 2723.99 367.885 2
-8 -1 3 16417.5 992.83 4
-8 1 3 17598.8 852.461 4
-8 1 3 18942.7 974.745 2
8 -1 3 16625.9 1083.15 3
8 1 3 19241.3 1094.12 3
-8 -1 4 8822.4 719.638 4
-8 1 4 8186.13 599.888 4
8 -1 4 8567.56 762.647 3
8 1 4 9483.62 790.071 3
8 -1 5 195.674 116.976 3
8 1 5 211.898 138.784 3
-8 -1 5 123.446 118.377 4
-8 1 5 37.6108 77.3671 4
8 1 6 116.31 94.6438 3
8 -1 6 345.708 173.603 3
-8 -1 6 228.46 164.658 4
-8 1 6 202.7 131.459 4
8 1 7 3210.17 479.447 1
-8 -1 7 3715.78 502.686 4
-8 1 7 3135.32 395.759 4
8 1 7 3597.19 486.627 3
8 -1 7 4143.95 578.111 3
8 1 8 455.52 186.098 3
8 -1 8 527.466 238.307 3
8 1 8 308.082 161.182 1
8 -1 8 351.721 200.24 1
-8 -1 8 277.434 125.623 4
-8 1 8 357.599 173.482 4
8 1 9 5257.99 609.791 1
8 -1 9 4904.77 549.201 1
-8 -1 9 4821.48 595.177 4
-8 1 9 4749.45 537.355 4
8 1 9 4675.86 546.833 3
8 -1 9 5478.77 650.731 3
8 1 10 4081.54 551.12 1
8 -1 10 3640.15 500.157 1
-8 1 10 3492.45 482.586 4
-8 -1 10 3629.49 518.895 4
8 -1 10 3895.59 561.523 3
8 -1 11 4777.63 556.741 1
8 1 11 4755.96 604.778 1
-8 -1 11 4695 630.191 4
-8 1 11 4173.79 539.96 4
8 -1 12 609.71 212.431 1
8 1 12 1057.26 312.386 1
-8 -1 12 782.959 316.346 4
-8 1 12 418.634 179.045 4
8 -1 13 -145.475 155.517 1
-8 -1 13 307.106 269.67 4
-8 1 13 131.993 125.687 4
-8 1 14 170.775 198.334 4
8 -1 14 5.14898 152.749 1
-8 2 -13 126.449 164.646 2
-8 2 -12 956.83 254.636 2
-8 -2 -12 955.452 333.584 7
8 -2 -12 685.712 295.676 3
8 2 -12 523.245 231.829 3
-8 2 -11 2390.15 391.987 2
-8 -2 -11 1729.79 399.58 7
8 -2 -11 2014.58 467.661 3
8 2 -11 1290.25 359.075 3
-8 2 -10 847.183 238.417 2
-8 -2 -10 742.027 262.801 7
8 -2 -10 331.664 217.977 3
8 2 -10 336.363 196.913 3
-8 2 -9 1504.08 306.269 2
-8 -2 -9 1266.74 288.859 7
8 -2 -9 1076.42 335.938 3
8 2 -9 1399.91 365.855 3
-8 -2 -8 -134.354 91.8186 7
-8 2 -8 135.502 113.363 2
8 -2 -8 179.756 169.778 3
8 2 -8 154.978 128.87 3
-8 -2 -7 734.313 226.004 7
-8 2 -7 929.274 220.266 2
8 -2 -7 1158.96 303.945 3
8 2 -7 1129.18 319.761 3
-8 -2 -6 1877.32 343.558 7
-8 2 -6 2197.86 359.874 2
8 -2 -6 2197.76 422.857 3
8 2 -6 2464.43 439.252 3
-8 -2 -5 284.213 172.026 7
-8 2 -5 -6.75274 102.51 2
8 -2 -5 444.459 216.848 3
8 2 -5 75.5765 107.339 3
-8 -2 -4 2302.51 356.158 7
-8 2 -4 2481.22 372.21 2
8 -2 -4 2348.69 411.617 3
8 2 -4 2491.19 403.734 3
8 2 -3 4684.21 538.92 3
-8 -2 -3 5637.89 555.279 7
-8 2 -3 4989.69 534.258 2
8 -2 -3 5550.82 614.077 3
-8 -2 -2 -26.6959 105.724 7
8 -2 -2 49.216 124.331 3
8 2 -2 61.8508 100.919 3
-8 2 -2 12.2571 83.6712 2
-8 -2 -2 -75.7613 127.818 4
-8 -2 -1 21579.4 1047.55 7
-8 -2 -1 24121.8 1288.12 4
-8 2 -1 22911.7 1163.11 2
8 -2 -1 20646.9 1205.88 3
8 2 -1 19235.9 1036.92 3
-8 -2 0 13591.4 801.757 7
-8 -2 0 14787.8 1011.02 4
-8 2 0 15099.8 953.17 2
8 -2 0 13747.8 976.915 3
8 2 0 12685.2 843.092 3
-8 -2 1 21107.5 982.851 7
-8 -2 1 23350.1 1286.27 4
-8 2 1 22585 1187.96 2
8 -2 1 20886 1220.47 3
8 2 1 21841.9 1127.12 3
8 -2 2 38.8928 102.657 3
8 2 2 20.1725 102.88 3
-8 2 2 -90.5671 132.782 2
-8 -2 2 -191.365 173.609 4
-8 -2 3 5328.72 610.443 4
-8 2 3 5748.29 603.175 2
8 -2 3 5475.46 622.064 3
8 2 3 5507.77 564.994 3
8 -2 4 2585.01 435.699 3
-8 2 4 2447.7 383.195 2
-8 -2 4 2605.4 428.393 4
8 2 4 2634.81 390.038 3
8 -2 5 95.4098 127.825 3
8 2 5 87.2506 94.617 3
-8 -2 5 214.683 160.563 4
8 2 6 2138.13 333.048 3
8 -2 6 2065.36 398.434 3
8 2 6 1946.33 357.414 1
-8 -2 6 2047.24 380.242 4
8 2 7 1653.02 296.921 3
8 -2 7 1153.69 299.418 3
8 -2 7 1296.76 287.73 1
8 2 7 1450.26 324.759 1
-8 -2 7 1321.71 320.685 4
8 2 8 337.604 148.599 3
8 -2 8 304.762 161.621 3
8 2 8 406.326 170.618 1
-8 -2 8 53.7071 128.417 4
8 -2 8 116.142 129.386 1
8 -2 9 1438.51 357.2 3
8 2 9 1649.41 352.467 1
8 -2 9 946.484 264.702 1
-8 -2 9 1512.19 357.971 4
8 -2 10 650.63 205.889 1
-8 -2 10 911.77 324.761 4
8 2 10 682.298 245.749 1
8 -2 11 2140.2 349.822 1
8 2 11 2250.73 422.727 1
-8 -2 11 2013.14 451.202 4
8 -2 12 932.703 249.816 1
-8 -2 12 1297.84 412.526 4
-8 3 -11 400.999 228.568 2
8 -3 -11 958.295 356.868 3
8 3 -11 564.773 246.949 3
-8 3 -10 -221.361 144.405 2
-8 -3 -10 -61.2521 117.491 7
8 -3 -10 19.5708 136.433 3
8 3 -10 28.4268 147.561 3
-8 -3 -9 -69.2673 161.298 7
-8 3 -9 153.952 157.118 2
8 -3 -9 79.5256 162.521 3
8 3 -9 -11.9537 140.54 3
-8 -3 -8 1108.15 303.572 7
-8 3 -8 860.473 255.78 2
8 -3 -8 670.967 319.701 3
8 3 -8 1241.12 341.76 3
-8 -3 -7 699.836 234.783 7
-8 3 -7 1320 300.628 2
8 -3 -7 1287.25 340.562 3
8 3 -7 1137.4 310.333 3
-8 -3 -6 -59.8076 147.033 7
-8 3 -6 237.089 173.789 2
8 -3 -6 -73.1479 125.325 3
8 3 -6 65.0801 122.553 3
-8 -3 -5 -222.805 187.878 7
-8 3 -5 18.8113 108.469 2
8 -3 -5 157.94 123.032 3
8 3 -5 23.9046 147.461 3
-8 -3 -4 1146.04 289.262 7
8 -3 -4 1020.3 283.225 3
-8 3 -4 992.508 274.948 2
8 3 -4 799.906 244.003 3
-8 -3 -3 495.743 169.978 7
8 -3 -3 356.797 165.501 3
8 3 -3 342.622 161.879 3
-8 3 -3 187.966 105.872 2
-8 -3 -2 565.862 221.646 7
8 -3 -2 663.234 260.835 3
8 3 -2 640.063 190.973 3
-8 3 -2 463.453 190.651 2
-8 -3 -2 599.721 245.125 4
-8 -3 -1 10370 797.883 7
-8 -3 -1 11390.7 958.889 4
-8 3 -1 11147.4 895.244 2
8 -3 -1 10023.7 869.12 3
8 3 -1 9688.39 716.305 3
-8 -3 0 6895.31 642.659 7
-8 -3 0 6683.8 738.922 4
-8 3 0 7043.86 706.826 2
8 -3 0 6818.18 698.635 3
8 3 0 6382.76 574.043 3
-8 -3 1 12246.2 999.647 4
-8 3 1 11769.1 932.633 2
8 -3 1 11417.3 905.098 3
8 3 1 10147.7 728.527 3
8 -3 2 722.136 236.285 3
-8 3 2 644.035 224.634 2
-8 -3 2 964.145 287.892 4
8 -3 3 966.252 276.902 3
-8 3 3 471.301 214.982 2
-8 -3 3 295.234 171.007 4
8 -3 4 1109.49 287.784 3
-8 3 4 1352.94 321.52 2
-8 -3 4 752.832 255.283 4
8 -3 5 149.136 160.828 3
8 3 5 12.8878 98.4628 1
-8 3 5 -82.4459 140.254 2
-8 -3 5 190.849 226.075 4
8 -3 6 240.009 159.67 3
8 3 6 -76.018 146.4 1
-8 -3 6 228.999 226.169 4
8 -3 7 1179.91 317.32 3
8 3 7 1376.88 295.486 1
-8 -3 7 1342.82 365.866 4
8 -3 8 948.56 292.828 3
8 3 8 626.836 212.803 1
-8 -3 8 765.061 316.363 4
8 -3 9 131.547 241.418 3
8 -3 9 238.674 139.402 5
-8 -3 9 172.969 193.624 4
8 3 9 -189.197 154.555 1
8 -3 10 -1.4965 70.7815 5
8 3 10 99.119 123.744 1
-8 -3 10 -142.347 155.994 4
8 -4 -10 449.499 267.863 3
8 -4 -9 1101.33 282.035 3
8 -4 -9 863.53 258.972 5
-8 -4 -8 292.622 256.54 7
-8 4 -8 78.31 151.272 2
8 -4 -8 37.3769 116.142 3
8 -4 -8 134.559 108.879 5
-8 -4 -7 1057.31 343.445 7
-8 4 -7 886.339 291.63 2
8 -4 -7 1115.1 331.622 3
8 -4 -7 1153.97 258.181 5
-8 -4 -6 -291.341 255.491 7
-8 4 -6 223.383 144.534 2
8 -4 -6 -34.3744 123.171 3
8 -4 -6 179.174 231.036 5
-8 -4 -5 589.311 283.451 7
8 -4 -5 677.814 234.936 3
-8 4 -5 356.886 213.525 2
8 -4 -5 351.539 161.856 5
-8 -4 -4 257.992 214.972 7
8 -4 -4 212.136 207.286 3
-8 4 -4 406.919 249.879 2
8 -4 -4 428.839 199.64 5
-8 -4 -3 266.59 212.441 7
8 -4 -3 95.7539 100.238 3
-8 4 -3 261.625 169.975 2
8 -4 -3 453.597 188.639 5
-8 -4 -2 6555.13 717.758 7
8 -4 -2 6715.23 646.268 5
-8 -4 -2 7604.6 841.293 4
-8 4 -2 6562.55 746.322 2
8 -4 -2 6647.89 707.417 3
-8 -4 -1 14123.7 1034.68 7
8 -4 -1 15183.9 946.395 5
-8 -4 -1 14400 1177.78 4
-8 4 -1 14821.9 1126.44 2
8 -4 -1 12900.5 996.286 3
8 -4 0 35687.7 1439.16 5
-8 -4 0 37014.3 1887.93 4
-8 4 0 35816.3 1775.81 2
8 -4 0 32018.7 1597.71 3
8 -4 1 14526.9 907.476 5
-8 -4 1 14433.1 1168.91 4
-8 4 1 14588.8 1125.7 2
8 -4 1 13757.3 1035.75 3
8 -4 2 6259.33 589.448 5
-8 -4 2 6499.79 788.5 4
-8 4 2 6696.22 757.547 2
8 -4 2 6867.15 728.818 3
8 4 3 283.925 138.406 1
8 -4 3 178.568 151.127 3
8 -4 3 139.722 143.775 5
-8 4 3 -15.1742 166.449 2
-8 -4 3 -89.8086 162.876 4
8 -4 4 237.564 162.866 3
8 -4 4 280.078 138.491 5
-8 4 4 -46.5308 173.005 2
8 4 4 309.81 157.1 1
-8 -4 4 23.5479 121.873 4
8 -4 5 768.196 296.29 3
8 -4 5 328.095 163.705 5
-8 4 5 426.02 200.184 2
-8 -4 5 323.301 213.934 4
8 4 5 310.95 141.33 1
8 -4 6 48.725 162.667 3
8 4 6 145.792 136.003 1
8 -4 6 245.446 127.478 5
-8 4 6 -72.7853 159.911 2
-8 -4 6 -110.797 112.307 4
8 4 7 918.05 267.597 1
8 -4 7 821.347 266.389 3
8 -4 7 764.767 216.593 5
-8 4 7 701.766 232.973 2
-8 -4 7 963.807 328.312 4
8 -4 8 -84.9654 117.332 3
8 -4 8 129.411 132.485 5
8 4 8 -36.1977 93.8465 1
8 -4 9 814.793 217.479 5
8 -4 10 386.09 189.559 5
-8 -5 -3 443.424 241.195 7
8 -5 -3 876.375 267.965 3
8 -5 -2 500.33 201.901 3
8 -5 -1 243.344 198.419 3
8 -5 0 1070.25 331.38 3
8 -5 1 189.86 121.604 3
8 -5 2 286.787 168.325 3
8 -5 3 816.055 311.9 3
8 -5 4 1111.49 344.526 3
8 5 4 1172.26 247.058 1
8 -5 5 1434.8 381.25 3
8 5 5 710.495 205.14 1
8 5 6 180.596 125.973 1
-9 0 -12 43.6165 164.875 7
-9 0 -11 -160.853 146.524 7
9 0 -11 -169.071 132.973 3
-9 0 -10 -235.684 189.777 7
9 0 -10 28.4228 152.164 3
-9 0 -9 -4.26402 97.4615 7
9 0 -9 486.505 244.308 3
-9 0 -8 -49.8375 115.824 7
9 0 -8 71.3478 211.834 3
-9 0 -7 299.06 112.4 7
9 0 -7 -63.9369 136.448 3
-9 0 -6 333.825 158.835 7
9 0 -6 -144.117 219.906 3
-9 0 -5 -223.427 156.643 7
9 0 -5 -97.9793 142.804 3
-9 0 -4 280.349 137.056 7
9 0 -4 -170.757 129.857 3
-9 0 -3 3.39344 71.2503 7
9 0 -3 154.95 166.121 3
-9 0 -2 0.92911 77.063 7
9 0 -2 149.233 149.351 3
9 0 -1 31.0958 87.1222 3
-9 0 -1 -20.3681 104.887 4
9 0 0 -19.513 83.3641 3
-9 0 0 -44.8442 70.9467 2
-9 0 0 7.35206 90.7266 4
9 0 1 -4.02798 104.831 3
-9 0 1 128.542 114.185 2
-9 0 1 -83.5559 100.544 4
9 0 2 96.5262 138.832 3
-9 0 2 -40.129 85.072 2
-9 0 2 212.84 127.237 4
9 0 3 72.7149 119.664 3
-9 0 3 -52.7481 85.9604 2
-9 0 3 -50.7152 84.598 4
9 0 4 35.3571 117.605 3
-9 0 4 174.712 121.754 4
9 0 5 58.0235 128.159 3
-9 0 5 155.043 139.739 4
9 0 6 68.5088 93.2873 3
-9 0 6 69.5981 160.416 4
9 0 7 -63.8219 176.23 3
-9 0 7 -66.8562 131.111 4
9 0 8 39.8014 98.7591 3
-9 0 8 275.583 206.561 4
9 0 9 128.307 156.041 3
-9 0 9 380.684 228.536 4
9 0 9 95.6612 174.376 1
9 0 10 -38.2658 124.355 3
9 0 10 56.598 130.376 1
-9 0 10 150.709 196.167 4
-9 0 11 102.547 182.501 4
9 0 11 106.5 104.119 1
9 0 12 247.583 202.084 1
-9 0 12 -144.189 172.14 4
-9 0 13 -245.73 201.728 4
-9 1 -12 178.551 135.355 7
-9 1 -11 1771.75 360.651 7
-9 -1 -11 1611.6 383.134 7
9 -1 -11 2131.63 488.929 3
9 1 -11 1388.8 381.976 3
-9 1 -10 1259.26 249.333 2
-9 1 -10 1202.3 288.031 7
-9 -1 -10 1403.47 315.946 7
9 -1 -10 1906.76 456.167 3
9 1 -10 1230.82 360.58 3
-9 -1 -9 2838.66 443.769 7
9 -1 -9 3246.76 586.764 3
9 1 -9 2265.23 480.658 3
-9 1 -9 3114.35 388.326 2
-9 1 -9 2967.59 414.28 7
-9 1 -8 2079.31 332.386 7
-9 1 -8 2281.43 317.99 2
-9 -1 -8 2686.63 408.809 7
9 -1 -8 1598.09 390.452 3
9 1 -8 2001 444.075 3
-9 -1 -7 2553.38 403.565 7
9 -1 -7 3026.81 528.868 3
9 1 -7 2882.1 515.251 3
-9 1 -7 3205.46 374.255 2
-9 1 -7 2627.13 357.867 7
-9 1 -6 -15.4155 98.1649 7
-9 -1 -6 26.409 92.6717 7
-9 1 -6 113.602 82.9963 2
9 -1 -6 216.35 168.015 3
9 1 -6 161.986 173.321 3
-9 1 -5 101.049 103.07 7
-9 -1 -5 177.073 161.295 7
-9 1 -5 154.401 91.8003 2
9 -1 -5 137.659 178.75 3
9 1 -5 79.1636 157.31 3
-9 1 -4 -27.7947 64.6401 7
-9 -1 -4 -13.982 102.535 7
-9 1 -4 211.797 123.072 2
9 -1 -4 165.099 140.857 3
9 1 -4 80.6429 179.478 3
-9 1 -3 916.505 186.412 7
-9 -1 -3 744.581 206.551 7
-9 1 -3 1291.18 252.555 2
9 -1 -3 1031.66 289.384 3
9 1 -3 1101.2 299.528 3
-9 -1 -2 2010.05 312.345 7
9 -1 -2 2166.6 412.378 3
9 1 -2 1930.49 367.944 3
-9 -1 -2 2351.26 419.224 4
-9 1 -2 2575.53 347.14 2
-9 -1 -1 431.403 170.275 7
9 -1 -1 73.3596 161.419 3
9 1 -1 127.699 111.123 3
-9 1 -1 72.7368 81.8571 2
-9 -1 -1 95.3024 92.0454 4
-9 -1 0 3996.31 510.55 4
-9 1 0 3806 429.995 2
9 -1 0 3730.16 525.303 3
9 1 0 3563.38 508.01 3
9 -1 1 156.28 171.749 3
9 1 1 31.7269 133.426 3
-9 1 1 -48.2288 78.4101 2
-9 -1 1 23.446 97.7135 4
9 -1 2 2368.94 426.997 3
9 1 2 2114.28 379.969 3
-9 1 2 2015.89 330.994 2
-9 -1 2 2391.89 402.507 4
9 -1 3 1184.64 302.236 3
9 1 3 1127.23 285.048 3
-9 1 3 925.785 218.887 2
-9 1 3 934.417 203.865 4
-9 -1 3 608.397 213.222 4
9 -1 4 -12.3403 152.23 3
9 1 4 16.2621 166.683 3
-9 1 4 139.194 100.518 2
-9 -1 4 297.01 171.009 4
-9 1 4 69.0315 107.477 4
9 -1 5 26.8649 121.914 3
9 1 5 -31.5371 86.0718 3
-9 -1 5 45.8759 124.252 4
-9 1 5 -52.1296 75.7876 4
9 1 6 167.486 212.138 3
9 -1 6 -73.4549 110.686 3
-9 -1 6 -122.261 137.658 4
-9 1 6 26.8876 77.7916 4
9 1 7 3289.8 483.46 3
9 -1 7 3439 542.896 3
-9 1 7 2841.52 402.831 4
-9 -1 7 2657.12 440.171 4
9 1 7 3477.06 521.097 1
9 1 8 2226.96 397.632 3
9 -1 8 3027.47 512.596 3
9 -1 8 2387.73 443.426 1
9 1 8 2347.71 435.3 1
-9 -1 8 1647.48 354.941 4
-9 1 8 2025.83 348.725 4
9 1 9 3815.64 558.669 1
9 -1 9 3402.57 501.348 1
-9 -1 9 2886 499.667 4
-9 1 9 2579.79 415.565 4
9 1 9 3374.03 512.985 3
9 -1 9 3596.45 591.491 3
9 -1 10 1753.14 425.044 3
9 1 10 1691.45 406.2 1
9 -1 10 1334.93 322.864 1
-9 -1 10 1452.3 360.505 4
-9 1 10 1580.73 353.483 4
-9 -1 11 1708.74 444.24 4
9 -1 11 1858.96 365.412 1
-9 1 11 1149.77 319.222 4
9 1 11 2128.12 429.829 1
9 -1 12 173.661 131.089 1
-9 -1 12 -100.336 167.432 4
-9 2 -12 936.706 276.292 2
-9 2 -11 3927.46 513.877 2
-9 2 -10 2113.03 372.747 2
-9 -2 -10 1135.03 322.894 7
9 -2 -10 1891.33 472.179 3
9 2 -10 1284.9 389.438 3
-9 2 -9 601.261 206.222 2
-9 -2 -9 625.178 240.316 7
9 -2 -9 579.841 281.377 3
9 2 -9 464.824 262.173 3
-9 -2 -8 78.1748 98.4155 7
-9 2 -8 555.594 201.201 2
9 -2 -8 375.473 205.378 3
9 2 -8 38.4372 173.452 3
-9 -2 -7 154.937 169.774 7
-9 2 -7 -59.6382 130.748 2
9 -2 -7 151.32 140.691 3
9 2 -7 -113.5 144.987 3
-9 -2 -6 523.757 211.973 7
-9 2 -6 542.487 201.506 2
9 -2 -6 55.5748 145.514 3
9 2 -6 419.56 207.605 3
-9 -2 -5 1012.81 273.384 7
-9 2 -5 1944.22 346.314 2
9 -2 -5 1993.22 426.531 3
9 2 -5 1795.08 387.843 3
-9 -2 -4 258.036 144.312 7
-9 2 -4 175.417 169.708 2
9 -2 -4 76.4298 156.399 3
9 2 -4 209.602 163.381 3
9 2 -3 5727.81 623.681 3
-9 -2 -3 6176.08 615.589 7
-9 2 -3 7400.48 666.796 2
9 -2 -3 6566.49 732.389 3
-9 -2 -2 2383.31 372.353 7
9 -2 -2 2544.37 458.453 3
9 2 -2 2386.21 403.731 3
-9 2 -2 2635.06 403.801 2
-9 -2 -2 2763.13 452.294 4
-9 -2 -1 2077.8 349.572 7
9 -2 -1 2451.75 445.75 3
9 2 -1 1529.28 319.095 3
-9 2 -1 1962.94 343.444 2
-9 -2 -1 2525.62 441.696 4
-9 -2 0 7767 631.584 7
-9 -2 0 7374.8 745.864 4
-9 2 0 8051.27 713.473 2
9 -2 0 6492.85 708.14 3
9 2 0 7185.67 681.338 3
9 -2 1 1586.88 348.809 3
9 2 1 2460.56 417.121 3
-9 2 1 2192.81 375.341 2
-9 -2 1 2352.53 413.866 4
9 -2 2 2773.73 479.516 3
9 2 2 2391.71 391.961 3
-9 2 2 2488.29 415.624 2
-9 -2 2 2737.07 459.812 4
-9 -2 3 6829.1 710.748 4
-9 2 3 6811.96 674.56 2
9 -2 3 6917.82 740.031 3
9 2 3 7172.18 687.663 3
9 -2 4 223.154 179.705 3
9 2 4 99.4933 117.176 3
-9 2 4 470.303 203.971 2
-9 -2 4 311.079 210.616 4
9 -2 5 2032.7 425.97 3
9 2 5 1902.82 359.239 3
-9 2 5 1712.24 343.469 2
-9 -2 5 2096.05 404.103 4
9 2 6 273.289 154.498 3
9 -2 6 277.472 192.509 3
-9 -2 6 589.983 211.061 4
9 2 7 6.17209 106.579 1
9 2 7 163.159 138.124 3
9 -2 7 104.314 109.448 3
-9 -2 7 -108.411 175.601 4
9 -2 8 95.6051 131.723 3
9 -2 8 712.208 235.406 1
-9 -2 8 389.28 241.027 4
9 2 8 198.39 172.581 1
9 -2 9 1324.4 361.2 3
9 2 9 892.018 269.959 1
9 -2 9 916.586 257.595 1
-9 -2 9 772.965 297.61 4
9 -2 10 1830.55 435.139 3
-9 -2 10 1519.91 391.656 4
9 -2 10 1622.51 326.705 1
9 -2 11 3398.32 476.02 1
9 3 -10 291.025 224.714 3
-9 -3 -9 493.803 274.882 7
-9 3 -9 338.3 178.363 2
9 -3 -9 519.855 252.088 3
9 3 -9 701.873 293.746 3
-9 -3 -8 -220.283 209.331 7
-9 3 -8 -146.487 157.223 2
9 -3 -8 35.5721 117.45 3
9 3 -8 0.97477 99.0318 3
-9 -3 -7 601.862 237.702 7
-9 3 -7 723.008 254.355 2
9 -3 -7 743.619 291.259 3
9 3 -7 782.868 267.447 3
-9 -3 -6 348.331 204.059 7
-9 3 -6 830.914 272.879 2
9 -3 -6 387.121 167.338 3
9 3 -6 735.281 272.347 3
-9 -3 -5 429.605 225.428 7
-9 3 -5 373.585 163.96 2
9 -3 -5 245.592 213.813 3
9 3 -5 128.551 101.828 3
-9 -3 -4 -35.5995 110.452 7
9 -3 -4 -192.204 181.555 3
-9 3 -4 62.4826 135.929 2
9 3 -4 -7.71508 129.809 3
-9 -3 -3 513.11 226.87 7
9 -3 -3 897.285 289.973 3
9 3 -3 395.402 157.604 3
-9 3 -3 917.408 268.987 2
-9 -3 -2 575.899 233.482 7
9 -3 -2 310.548 181.302 3
9 3 -2 368.401 159.028 3
-9 3 -2 380.314 195.292 2
-9 -3 -2 403.023 185.051 4
-9 -3 -1 19.4228 107.471 7
9 -3 -1 101.495 161.356 3
9 3 -1 103.65 115.918 3
-9 3 -1 179.62 204.668 2
-9 -3 -1 57.4639 221.251 4
-9 -3 0 3270.9 467.703 7
-9 -3 0 4486.39 644.535 4
-9 3 0 5289.56 645.721 2
9 -3 0 3961.06 571.017 3
9 -3 1 232.819 194.18 3
-9 3 1 263.4 206.667 2
-9 -3 1 240.34 208.801 4
9 -3 2 93.9359 88.8643 3
-9 3 2 372.182 194.908 2
-9 -3 2 227.612 125.868 4
9 -3 3 773.915 283.78 3
-9 3 3 587.379 194.77 2
-9 -3 3 826.699 330.368 4
9 -3 4 -14.9886 101.239 3
-9 3 4 134.053 124.392 2
-9 -3 4 100.181 147.984 4
9 -3 5 318.257 211.893 3
9 3 5 182.463 141.705 1
-9 3 5 362.683 256.324 2
-9 -3 5 154.465 177.497 4
9 -3 6 642.368 241.918 3
-9 3 6 281.616 156.259 2
-9 -3 6 715.166 304.425 4
9 3 6 503.256 182.912 1
9 -3 7 698.858 313.478 3
-9 -3 7 617.82 286.877 4
9 3 7 986.826 276.436 1
9 -3 8 492.941 275.21 3
9 3 8 214.145 140.927 1
-9 -3 8 -50.4504 165.744 4
9 -3 10 141.203 165.781 5
9 -4 -7 324.074 154.957 3
-9 -4 -6 323.138 222.59 7
9 -4 -6 476.191 244.231 3
9 -4 -6 539.95 243.84 5
-9 -4 -5 88.0631 185.238 7
9 -4 -5 171.148 128.917 3
-9 4 -5 -171.251 141.386 2
9 -4 -5 207.276 173.608 5
-9 -4 -4 1060.56 324.834 7
9 -4 -4 761.027 292.986 3
-9 4 -4 804.899 269.19 2
9 -4 -4 821.879 264.753 5
-9 -4 -3 764.647 272.565 7
9 -4 -3 346.729 182.394 3
-9 4 -3 548.432 201.617 2
9 -4 -3 802.705 269.676 5
-9 -4 -2 1003.76 321.587 7
9 -4 -2 798.582 253.688 3
-9 4 -2 893.654 264.706 2
-9 -4 -2 646.911 249.007 4
9 -4 -1 1830.75 405.914 3
9 -4 -1 1796.53 361.179 5
-9 4 -1 1885.49 421.628 2
-9 -4 -1 1745.64 456.033 4
9 -4 0 6739.34 655.283 5
-9 -4 0 7665.74 890.032 4
-9 4 0 7257.16 830.992 2
9 -4 0 6467.23 748.249 3
9 -4 1 2189.55 440.303 3
9 -4 1 2099.2 369.449 5
-9 4 1 1368.42 371.023 2
-9 -4 1 1674.33 412.009 4
9 -4 2 1068.77 346.123 3
9 -4 2 1057.49 282.224 5
-9 4 2 839.858 286.266 2
-9 -4 2 1060.04 337.186 4
9 -4 3 506.818 246.225 3
9 -4 3 757.944 219.913 5
-9 4 3 313.313 197.841 2
-9 -4 3 561.786 273.142 4
9 -4 4 621.57 250.079 3
9 4 4 517.74 180.961 1
9 -4 4 929.461 261.55 5
-9 4 4 879.302 342.574 2
9 4 5 -136.68 80.5784 1
9 -4 5 -71.8719 163.307 3
9 -4 6 677.84 245.871 5
9 4 6 615.411 204.958 1
9 -5 -2 514.337 209.14 3
9 -5 -1 4802.04 673 3
-10 0 -11 116.828 140.093 7
-10 0 -10 1903.43 376.119 7
10 0 -9 4407.67 701.82 3
-10 0 -9 3663.35 493.523 7
-10 0 -8 -15.4628 135.848 7
10 0 -8 393.633 207.86 3
-10 0 -7 -23.068 142.878 7
10 0 -7 534.001 288.315 3
10 0 -6 4569.45 670.141 3
-10 0 -6 3920.08 461.045 7
-10 0 -5 1121.6 267.781 7
10 0 -5 1218.89 317.144 3
10 0 -4 8471.17 865.786 3
10 0 -3 250.072 157.564 3
10 0 -2 9176.65 856.891 3
-10 0 -1 4770.98 510.049 4
10 0 -1 4273.88 575.16 3
10 0 0 104.41 112.63 3
-10 0 0 282.288 125.27 4
-10 0 1 4599.95 534.422 4
10 0 1 4564.16 608.973 3
-10 0 2 9500.55 753.159 4
10 0 2 8797.54 849.419 3
10 0 3 240.291 171.626 3
-10 0 3 363.186 198.431 4
-10 0 4 8182.44 700.688 4
10 0 4 10193.8 927.723 3
10 0 5 1797.55 423.811 3
-10 0 5 1309.74 314.439 4
-10 0 6 4123.04 526.678 4
10 0 6 4702.13 637.995 3
10 0 7 90.6524 110.58 3
-10 0 7 124.423 100.624 4
10 0 8 214.342 151.264 3
10 0 8 374.152 154.453 1
-10 0 8 684.257 249.665 4
10 0 9 5750.32 714.461 1
-10 0 9 4196.78 592.076 4
10 0 9 5466.34 721.067 3
10 0 10 2788.81 520.611 3
-10 0 10 2574.02 478.664 4
-10 0 11 403.619 246.11 4
-10 1 -11 465.964 225.767 7
-10 1 -10 751.408 235.456 7
-10 -1 -10 744.631 285.853 7
10 1 -9 5491.66 790.114 3
-10 1 -9 4548.27 530.731 7
-10 -1 -9 4909.68 608.53 7
-10 1 -8 283.087 158.991 7
-10 -1 -8 142.978 163.498 7
10 -1 -8 206.507 165.76 3
10 1 -8 -47.027 187.632 3
-10 1 -7 251.506 182.057 7
-10 -1 -7 48.3552 144.151 7
10 -1 -7 674.603 312.649 3
10 1 -7 428.214 224.818 3
-10 -1 -6 -96.0312 86.3319 7
10 -1 -6 247.507 170.673 3
10 1 -6 134.898 184.223 3
-10 -1 -5 566.877 198.071 7
10 -1 -5 849.773 303.453 3
10 1 -5 663.495 256.41 3
-10 -1 -4 3844.87 474.223 7
10 1 -4 3523.72 535.923 3
10 -1 -4 4327.97 636.822 3
10 -1 -3 473.278 256.233 3
10 1 -3 430.467 209.331 3
10 -1 -2 11172.3 974.803 3
10 1 -2 9895.1 864.635 3
-10 -1 -1 20759.7 1204.06 4
10 -1 -1 16854.4 1198.59 3
10 1 -1 16756.3 1137.54 3
-10 -1 0 7062.01 700.948 4
-10 1 0 7143.94 605.854 2
10 -1 0 6023.39 709.127 3
10 1 0 6244.6 680.031 3
-10 -1 1 20643.2 1209.27 4
-10 1 1 18496.9 996.489 2
10 -1 1 18415.4 1252.51 3
10 1 1 18197.3 1197.41 3
-10 -1 2 11192.9 883.362 4
-10 1 2 10229.2 754.988 2
10 -1 2 11323.7 993.851 3
10 1 2 10969.7 922.157 3
10 -1 3 263.931 135.738 3
10 1 3 259.812 215.083 3
-10 1 3 435.477 182.449 2
-10 -1 3 474.934 222.436 4
-10 -1 4 3763.2 511.545 4
-10 1 4 4709 528.778 2
10 -1 4 4325.54 606.674 3
10 1 4 4467.22 612.416 3
10 -1 5 942.046 308.185 3
10 1 5 797.358 272.913 3
-10 1 5 731.756 217.906 2
-10 -1 5 815.345 278.164 4
10 1 6 113.268 146.548 3
10 -1 6 -8.45965 120.581 3
-10 -1 6 344.182 211.838 4
10 1 7 205.617 180.863 3
10 -1 7 147.459 177.56 3
10 1 7 -39.7001 198.774 1
-10 -1 7 128.099 139.243 4
10 1 8 91.0684 115.47 3
10 -1 8 -140.998 226.362 3
10 -1 8 389.298 202.373 1
-10 -1 8 222.826 200.343 4
10 1 8 72.4617 181.3 1
10 -1 9 6031.44 706.818 1
-10 -1 9 5415.72 706.955 4
10 1 9 5167.84 653.426 3
10 -1 9 6033.08 769.383 3
10 1 10 778.561 267.451 3
10 -1 10 416.624 193.04 1
-10 -1 10 796.029 279.375 4
-10 2 -10 1665.11 340.373 7
-10 2 -9 1338.88 297.113 7
-10 -2 -9 1420.82 359.255 7
10 2 -9 1218.92 405.477 3
-10 2 -8 171.365 140.749 2
-10 -2 -8 479.805 212.799 7
10 2 -8 757.982 317.236 3
-10 -2 -7 962.936 280.803 7
-10 2 -7 2348.93 406.35 2
10 -2 -7 1527.11 388.541 3
10 2 -7 1545.29 401.539 3
-10 -2 -6 16.8771 135.178 7
-10 2 -6 94.8724 130.667 2
10 -2 -6 -22.8724 154.211 3
10 2 -6 -51.7616 144.638 3
-10 -2 -5 -99.2632 115.371 7
-10 2 -5 15.2714 97.2917 2
10 -2 -5 12.5751 138.65 3
10 2 -5 10.2155 194.682 3
-10 -2 -4 622.895 250.531 7
-10 2 -4 674.649 239.22 2
10 -2 -4 780.603 295.604 3
10 2 -4 291.062 160.163 3
-10 -2 -3 204.942 188.05 7
10 -2 -3 81.5672 140.875 3
10 2 -3 -15.0445 109.396 3
-10 2 -3 -49.3893 86.6521 2
10 -2 -2 582.973 249.798 3
10 2 -2 218.315 185.087 3
-10 2 -2 108.951 101.708 2
-10 -2 -2 354.491 219.358 4
10 -2 -1 203.45 110.175 3
10 2 -1 401.313 198.513 3
-10 2 -1 373.537 194.838 2
-10 -2 -1 546.473 280.58 4
10 -2 0 961.293 332.93 3
10 2 0 513.983 216.99 3
-10 2 0 487.823 179.104 2
-10 -2 0 798.802 260.006 4
10 -2 1 629.523 259.316 3
10 2 1 543.735 236.433 3
-10 2 1 488.957 207.164 2
-10 -2 1 386.875 152.831 4
10 -2 2 170.172 157.393 3
10 2 2 175.794 129.208 3
-10 2 2 151.905 112.54 2
-10 -2 2 102.598 160.411 4
10 -2 3 113.204 132.755 3
10 2 3 72.9321 102.252 3
-10 2 3 16.371 104.205 2
-10 -2 3 29.5609 101.042 4
10 -2 4 895.723 308.009 3
10 2 4 529.351 235.346 3
-10 2 4 564.953 250.512 2
-10 -2 4 766.852 236.188 4
10 -2 5 378.761 196.945 3
10 2 5 229.225 180.442 3
-10 2 5 524.518 201.242 2
-10 -2 5 98.0687 120.806 4
10 -2 6 -253.895 212.721 3
-10 2 6 -111.575 101.889 2
-10 -2 6 27.5128 140.541 4
10 -2 7 1578.89 392.846 3
10 2 7 2212.8 428.993 1
-10 -2 7 1290.55 360.845 4
10 -2 8 312.26 194.469 1
-10 -2 8 516.727 265.15 4
10 -2 9 1410.78 326.619 1
-10 3 -8 -3.47434 145.199 2
10 3 -8 -131.392 202.099 3
-10 -3 -7 366.726 250.533 7
-10 3 -7 25.3243 171.319 2
10 3 -7 286.172 230.968 3
-10 -3 -6 85.6461 167.539 7
-10 3 -6 283.105 155.693 2
10 3 -6 -115.5 113.906 3
-10 -3 -5 527.569 274.042 7
-10 3 -5 598.913 236.31 2
10 -3 -5 657.47 290.041 3
10 3 -5 284.228 150.363 3
-10 -3 -4 -29.9381 129.704 7
10 -3 -4 46.0279 119.858 3
-10 3 -4 258.06 178.984 2
10 3 -4 173.413 158.995 3
-10 -3 -3 159.745 155.309 7
10 -3 -3 344.03 214.738 3
-10 3 -3 11.751 124.975 2
-10 -3 -2 -72.0368 138.604 7
10 -3 -2 -138.576 128.529 3
-10 3 -2 106.609 146.475 2
-10 -3 -2 -125.55 163.955 4
10 -3 -1 3266.4 547.616 3
-10 3 -1 3513.73 535.716 2
-10 -3 -1 4037.3 632.626 4
10 -3 0 4.94403 164.243 3
-10 3 0 -69.0658 107.8 2
-10 -3 0 114.895 157.289 4
10 -3 1 3420.87 558.882 3
-10 3 1 3523.92 548.48 2
-10 -3 1 3950.6 597.794 4
10 -3 2 -33.0535 155.589 3
-10 3 2 -106.534 125.986 2
-10 -3 2 144.657 184.494 4
10 -3 3 394.001 239.497 3
-10 3 3 448.427 223.734 2
-10 -3 3 347.695 196.891 4
10 -3 4 293.774 218.281 3
-10 3 4 90.731 155.474 2
-10 -3 4 -6.01655 196.811 4
-10 3 5 680.658 249.639 2
-10 -3 5 845.054 322.856 4
10 3 5 680.856 250.078 1
-10 3 6 353.114 215.85 2
-10 3 7 310.622 197.868 2
-10 -4 -4 702.534 341.382 7
-10 -4 -3 191.105 139.594 7
-10 -4 -2 1452.22 381.898 7
11 0 -6 436.972 264.239 3
11 0 -5 14.4263 192.409 3
11 0 -4 329.127 235.5 3
11 0 -3 47.5681 119.392 3
11 0 -2 -267.443 151.12 3
11 0 -1 328.098 247.829 3
11 0 0 -141.333 165.171 3
11 0 1 -23.58 150.502 3
11 0 2 154.915 175.414 3
11 0 3 157.833 195.916 3
11 0 4 -75.6991 132.652 3
11 0 5 -54.1759 131.883 3
11 0 6 357.736 284.885 3
11 0 7 84.8836 173.546 3
-11 -1 -9 820.066 306.083 7
-11 -1 -8 2712.06 459.056 7
11 1 -6 353.232 241.321 3
11 -1 -5 220.783 210.673 3
11 1 -5 -2.44866 128.586 3
11 -1 -4 1471.13 397.797 3
11 1 -4 1511.99 402.578 3
11 -1 -3 3405.58 586.281 3
11 1 -3 3028.35 533.652 3
11 -1 -2 179.946 218.34 3
11 1 -2 -16.854 132.949 3
11 -1 -1 3267.21 567.126 3
11 1 -1 3463.76 544.508 3
-11 -1 -1 4156.64 578.431 4
11 -1 0 1964 432.779 3
11 1 0 1291.51 341.185 3
-11 -1 0 1788.8 402.273 4
11 -1 1 3004.63 535.889 3
11 1 1 2563 476.271 3
-11 -1 1 3143.14 499.84 4
11 -1 2 -147.088 131.255 3
11 1 2 95.1621 184.493 3
-11 -1 2 42.8077 141.567 4
11 -1 3 2619.67 495.481 3
11 1 3 3255.02 543.442 3
-11 -1 3 3305.53 508.229 4
11 -1 4 1343.47 352.996 3
11 1 4 1507.75 381.868 3
-11 -1 4 1325.88 332.818 4
11 -1 5 253.83 212.88 3
11 1 5 130.951 188.493 3
-11 -1 5 360.712 121.486 4
11 1 6 378.518 263.145 3
-11 -1 6 302.527 165.1 4
11 1 7 430.382 242.435 3
-11 -1 7 506.32 247.174 4
11 1 8 3231.73 560.682 3
-11 -1 8 2680.46 497.794 4
11 1 9 894.548 309.305 3
-11 -2 -8 843.262 298.497 7
-11 -2 -7 53.3923 121.871 7
11 2 -6 127.896 177.823 3
11 2 -5 440.483 269.204 3
11 2 -4 1240.88 361.277 3
11 2 -3 865.241 270.464 3
11 -2 -2 555.273 316.299 3
11 2 -2 547.336 229.644 3
11 -2 -1 559.06 309.707 3
11 2 -1 783.543 247.43 3
-11 -2 -1 952.49 332.198 4
11 -2 0 -121.32 150.649 3
11 2 0 119.198 162.492 3
-11 -2 0 27.3213 156.286 4
11 -2 1 581.892 243.334 3
11 2 1 473.361 218.732 3
-11 -2 1 755.595 277.357 4
11 -2 2 335.837 213.963 3
11 2 2 338.45 167.157 3
-11 -2 2 589.279 262.213 4
11 2 3 923.545 295.535 3
-11 2 3 641.706 247.651 2
-11 -2 3 759.267 274.085 4
-11 2 4 1237.84 295.467 2
-11 -2 4 1442.22 365.817 4
-11 2 5 64.3543 130.638 2
-11 -2 5 -262.5 157.346 4
-11 2 6 209.819 168.223 2
-11 -2 6 309.905 114.211 4
-11 2 7 340.865 190.521 2
11 -2 8 1423 359.174 1
-11 3 -5 992.736 305.815 2
-11 3 -4 194.23 178.632 2
-11 3 -3 83.1661 132.589 2
-11 3 -2 132.848 171.894 2
-11 3 -1 98.2285 110.059 2
-11 3 0 -78.039 187.186 2
-11 3 1 813.703 298.023 2
-11 3 2 213.38 184.248 2
-11 3 3 -16.7941 121.884 2
-11 3 4 -79.9647 171.704 2
12 1 -1 436.931 230.138 3
12 1 0 221.401 190.343 3
12 1 1 296.557 225.713 3
12 1 2 281.324 181.901 3
12 1 3 423.099 241.868 3
12 1 4 637.03 288.797 3
12 2 -2 1068.64 317.049 3
12 2 -1 219.37 163.602 3
-12 -2 0 7196.97 816.953 4
12 2 0 5316.13 716.944 3
