#------------------------------------------------------------------------------
#$Date: 2015-05-08 18:39:12 +0300 (Fri, 08 May 2015) $
#$Revision: 135767 $
#$URL: svn://www.crystallography.net/cod/cif/7/22/02/7220218.cif $
#------------------------------------------------------------------------------
#
# This file is available in the Crystallography Open Database (COD),
# http://www.crystallography.net/
#
# All data on this site have been placed in the public domain by the
# contributors.
#
data_7220218
loop_
_publ_author_name
'Singh, Vinay Kumar'
'Verma, Sanjay Kumar'
'Kadu, Rahul Vilasrao'
'Mobin, Shaikh M.'
_publ_section_title
;
 Identification of unusual C--Cl&#x2022;&#x2022;&#x2022;\p contacts in
 2-(alkylamino)-3-chloro-1,4-naphthoquinones: Effect of N-substituents on
 crystal packings, fluorescence, redox and anti-microbial properties
;
_journal_name_full               'RSC Adv.'
_journal_paper_doi               10.1039/C5RA02295A
_journal_year                    2015
_chemical_formula_moiety         'C16 H16 Cl N O2'
_chemical_formula_sum            'C16 H16 Cl N O2'
_chemical_formula_weight         289.76
_space_group_crystal_system      triclinic
_space_group_IT_number           2
_space_group_name_Hall           '-P 1'
_space_group_name_H-M_alt        'P -1'
_symmetry_space_group_name_Hall  '-P 1'
_symmetry_space_group_name_H-M   'P -1'
_audit_creation_date             2014-02-04
_audit_creation_method
;
  Olex2 1.2
  (compiled Apr 23 2013 17:59:47, GUI svn.r4466)
;
_audit_update_record
;
2014-02-11 deposited with the CCDC.
2015-04-24 downloaded from the CCDC.
;
_cell_angle_alpha                92.178(10)
_cell_angle_beta                 104.565(11)
_cell_angle_gamma                94.094(10)
_cell_formula_units_Z            2
_cell_length_a                   8.1167(10)
_cell_length_b                   8.3589(10)
_cell_length_c                   10.5321(13)
_cell_measurement_temperature    293
_cell_volume                     688.68(15)
_computing_molecular_graphics
;
O. V. Dolomanov, L. J. Bourhis, R. J. Gildea, J. A. K. Howard and H. Puschmann,
OLEX2: a complete structure solution, refinement and analysis program.
J. Appl. Cryst. (2009). 42, 339-341.
;
_computing_publication_material
;
O. V. Dolomanov, L. J. Bourhis, R. J. Gildea, J. A. K. Howard and H. Puschmann,
OLEX2: a complete structure solution, refinement and analysis program.
J. Appl. Cryst. (2009). 42, 339-341.
;
_computing_structure_refinement
;
olex2.refine (L.J. Bourhis, O.V. Dolomanov, R.J. Gildea, J.A.K. Howard,
H. Puschmann, in preparation, 2011)
;
_diffrn_ambient_temperature      293
_diffrn_measured_fraction_theta_full 0.9979
_diffrn_measured_fraction_theta_max 0.9979
_diffrn_radiation_wavelength     0.71073
_diffrn_reflns_av_R_equivalents  0.0438
_diffrn_reflns_av_unetI/netI     0.0466
_diffrn_reflns_limit_h_max       10
_diffrn_reflns_limit_h_min       -10
_diffrn_reflns_limit_k_max       10
_diffrn_reflns_limit_k_min       -10
_diffrn_reflns_limit_l_max       13
_diffrn_reflns_limit_l_min       -13
_diffrn_reflns_number            5755
_diffrn_reflns_theta_full        25.0000
_diffrn_reflns_theta_max         25.00
_diffrn_reflns_theta_min         3.07
_exptl_absorpt_coefficient_mu    0.278
_exptl_crystal_colour            reddish
_exptl_crystal_colour_modifier   reddish
_exptl_crystal_density_diffrn    1.3972
_exptl_crystal_description       needle
_exptl_crystal_F_000             304.4287
_exptl_crystal_size_max          0.23
_exptl_crystal_size_mid          0.18
_exptl_crystal_size_min          0.13
_refine_diff_density_max         0.3791
_refine_diff_density_min         -0.3873
_refine_diff_density_rms         0.0771
_refine_ls_d_res_high            0.8409
_refine_ls_d_res_low             6.6341
_refine_ls_goodness_of_fit_ref   1.0392
_refine_ls_hydrogen_treatment    mixed
_refine_ls_matrix_type           full
_refine_ls_number_constraints    27
_refine_ls_number_parameters     180
_refine_ls_number_reflns         2429
_refine_ls_number_restraints     0
_refine_ls_restrained_S_all      1.0392
_refine_ls_R_factor_all          0.0786
_refine_ls_R_factor_gt           0.0637
_refine_ls_shift/su_max          0.0020
_refine_ls_shift/su_mean         0.0006
_refine_ls_structure_factor_coef Fsqd
_refine_ls_weighting_details
'w=1/[\s^2^(Fo^2^)+(0.1133P)^2^+0.0087P] where P=(Fo^2^+2Fc^2^)/3'
_refine_ls_weighting_scheme      calc
_refine_ls_wR_factor_ref         0.1872
_reflns_Friedel_coverage         0.0
_reflns_limit_h_max              9
_reflns_limit_h_min              -9
_reflns_limit_k_max              9
_reflns_limit_k_min              -9
_reflns_limit_l_max              12
_reflns_limit_l_min              0
_reflns_number_gt                1846
_reflns_number_total             2429
_reflns_threshold_expression     I>=2u(I)
_cod_data_source_file            c5ra02295a2.cif
_cod_data_source_block           msu002
_cod_database_code               7220218
_olex2_refinement_description
;
1. Fixed Uiso
 At 1.2 times of:
  All C(H) groups, All C(H,H) groups, All N(H) groups
2.a Ternary CH refined with riding coordinates:
 C11(H11)
2.b Secondary CH2 refined with riding coordinates:
 C12(H12a,H12b), C13(H13a,H13b), C14(H14a,H14b), C15(H15a,H15b), C16(H16a,H16b)
2.c Aromatic/amide H refined with riding coordinates:
 N1(H1), C7(H7), C8(H8), C9(H9), C10(H10)
;
_shelx_res_file
;
TITL MSU002 in P-1
CELL 0.71073 8.1167 8.3589 10.5321 92.178 104.565 94.094
ZERR 2 0.001 0.001 0.0013 0.01 0.011 0.01
LATT 1

SFAC C H N O Cl
UNIT 32 32 2 4 2


L.S. 16
PLAN  20
SIZE 0.13 0.18 0.23
TEMP 19.85
ACTA 50
BOND $H
CONF 
FMAP 2
MERG 2
OMIT -3 50
REM <HKL>D:\Sanjay%20D\Total%20papers\O%20C%20Quinones\xraystructures_final\MS
REM U002FINAL(Cyclohexyl)\msu002.hkl</HKL>
WGHT 0.1133 0.0087
FVAR 8.757887

Cl1   5     0.10426  0.91944  0.70764  11.00000  0.06649  0.07927  0.06817 =
 -0.01291  0.02434  0.01631 
O1    4     0.34497  0.59900  0.38537  11.00000  0.05562  0.07943  0.08817 =
 -0.02530  0.02609  0.00720 
O2    4    -0.20081  0.79220  0.52329  11.00000  0.05797  0.10466  0.07392 =
 -0.00012  0.02593  0.02087 
N1    3     0.40619  0.76630  0.60607  11.00000  0.05122  0.06662  0.07011 =
 -0.01374  0.02046  0.00712 
AFIX 43
H1    2     0.47400  0.72083  0.56781  11.00000 -1.20000 
AFIX 0
C1    1     0.21937  0.64381  0.41366  11.00000  0.05284  0.04636  0.06853 =
 -0.00235  0.02113  0.00376 
C2    1     0.24138  0.74516  0.54083  11.00000  0.05359  0.04396  0.05999 =
 0.00175  0.01970  0.00452 
C3    1     0.09732  0.79536  0.56990  11.00000  0.06003  0.04913  0.05664 =
 0.00169  0.02223  0.00841 
C4    1    -0.07455  0.75165  0.49115  11.00000  0.05371  0.05816  0.06088 =
 0.01056  0.02176  0.01226 
C5    1    -0.09638  0.65178  0.36591  11.00000  0.05488  0.04599  0.06324 =
 0.00694  0.01889  0.00613 
C6    1     0.04596  0.60408  0.32810  11.00000  0.05533  0.04167  0.06427 =
 -0.00010  0.01728  0.00418 
C7    1     0.02398  0.51430  0.21016  11.00000  0.06453  0.05593  0.06999 =
 -0.00762  0.01558  0.00535 
AFIX 43
H7    2     0.11850  0.48161  0.18450  11.00000 -1.20000 
AFIX 0
C8    1    -0.13908  0.47371  0.13101  11.00000  0.07213  0.06460  0.07354 =
 -0.01230  0.01088  0.00015 
AFIX 43
H8    2    -0.15383  0.41475  0.05170  11.00000 -1.20000 
AFIX 0
C9    1    -0.27872  0.52029  0.16939  11.00000  0.06148  0.06856  0.07862 =
 -0.00007  0.00422 -0.00500 
AFIX 43
H9    2    -0.38775  0.49243  0.11585  11.00000 -1.20000 
AFIX 0
C10   1    -0.25894  0.60880  0.28760  11.00000  0.05541  0.06514  0.07489 =
 0.00541  0.01605  0.00628 
AFIX 43
H10   2    -0.35414  0.63879  0.31372  11.00000 -1.20000 
AFIX 0
C11   1     0.49132  0.85328  0.73121  11.00000  0.05075  0.06008  0.05839 =
 -0.00491  0.01601  0.00560 
AFIX 13
H11   2     0.41366  0.84831  0.78899  11.00000 -1.20000 
AFIX 0
C12   1     0.53512  1.02831  0.71015  11.00000  0.06873  0.06172  0.06919 =
 -0.00304  0.01412  0.01019 
AFIX 23
H12a  2     0.60959  1.03516  0.65118  11.00000 -1.20000 
H12b  2     0.43157  1.07791  0.67014  11.00000 -1.20000 
AFIX 0
C13   1     0.62415  1.11739  0.84172  11.00000  0.07469  0.06702  0.07361 =
 -0.01655  0.01967  0.00315 
AFIX 23
H13a  2     0.65527  1.22809  0.82708  11.00000 -1.20000 
H13b  2     0.54594  1.11761  0.89783  11.00000 -1.20000 
AFIX 0
C14   1     0.78297  1.03924  0.90987  11.00000  0.06327  0.09064  0.07026 =
 -0.01927  0.01193  0.00369 
AFIX 23
H14a  2     0.86682  1.05069  0.85877  11.00000 -1.20000 
H14b  2     0.83202  1.09349  0.99555  11.00000 -1.20000 
AFIX 0
C15   1     0.74265  0.86264  0.92621  11.00000  0.06156  0.09063  0.06572 =
 0.00435  0.01262  0.01794 
AFIX 23
H15a  2     0.84802  0.81431  0.96340  11.00000 -1.20000 
H15b  2     0.67113  0.85187  0.98712  11.00000 -1.20000 
AFIX 0
C16   1     0.65157  0.77356  0.79599  11.00000  0.05422  0.06212  0.07190 =
 0.00245  0.02078  0.00946 
AFIX 23
H16a  2     0.62097  0.66285  0.81094  11.00000 -1.20000 
H16b  2     0.72759  0.77358  0.73814  11.00000 -1.20000 
AFIX 0
Q1    1     0.12000  0.92000  0.71875  11.00000  0.06000  0.380
Q2    1     0.08000  1.04000  0.62500  11.00000  0.06000  0.370
Q3    1    -0.16000  0.72000  0.59375  11.00000  0.06000  0.300
Q4    1     0.00000  0.64000  0.71875  11.00000  0.06000  0.280
Q5    1     0.32000  0.72000  0.31250  11.00000  0.06000  0.270
Q6    1     0.36000  0.60000  0.37500  11.00000  0.06000  0.260
Q7    1    -0.04000  0.84000  0.62500  11.00000  0.06000  0.250
Q8    1     0.68000  0.84000  0.81250  11.00000  0.06000  0.230
Q9    1     0.48000  0.92000  0.68750  11.00000  0.06000  0.210
Q10   1     0.72000  0.72000  0.96875  11.00000  0.06000  0.210
Q12   1     0.56000  1.04000  0.71875  11.00000  0.06000  0.200
Q13   1    -0.04000  0.96000  0.71875  11.00000  0.06000  0.200
Q11   1    -0.08000  0.64000  0.37500  11.00000  0.06000  0.210
Q14   1     0.68000  0.60000  1.00000  11.00000  0.06000  0.200
Q15   1     0.56000  0.80000  0.81250  11.00000  0.06000  0.200
Q16   1    -0.04000  0.68000  0.56250  11.00000  0.06000  0.200
Q17   1     0.80000  1.08000  0.84375  11.00000  0.06000  0.190
Q18   1    -0.16000  0.92000  0.46875  11.00000  0.06000  0.190
Q19   1     0.68000  1.04000  0.93750  11.00000  0.06000  0.190
Q20   1     0.20000  0.64000  0.40625  11.00000  0.06000  0.180
HKLF 4
END


REM The information below was added by Olex2.
REM
REM R1 = 0.0637 for 1846 Fo > 4sig(Fo) and 0.0786 for all 2429 data
REM 180 parameters refined using 0 restraints
REM Highest difference peak 0.3791, deepest hole -0.3873
REM Mean Shift 0.0006, Max Shift 0.0020.

REM +++ Tabular Listing of Refinement Information +++
REM R1_all = 0.0786
REM R1_gt = 0.0637
REM wR_ref = 0.1872
REM GOOF = 1.0392
REM Shift_max = 0.0020
REM Shift_mean = 0.0006
REM Reflections_all = 2429
REM Reflections_gt = 1846
REM Parameters = 180
REM Hole = 0.3791
REM Peak = -0.3873
REM Flack = n/a

;
loop_
_space_group_symop_id
_space_group_symop_operation_xyz
1 x,y,z
2 -x,-y,-z
loop_
_atom_site_label
_atom_site_type_symbol
_atom_site_fract_x
_atom_site_fract_y
_atom_site_fract_z
_atom_site_U_iso_or_equiv
_atom_site_adp_type
_atom_site_occupancy
_atom_site_refinement_flags_posn
Cl1 Cl 0.10426(9) 0.91944(9) 0.70764(7) 0.0700(3) Uani 1.000000 .
O1 O 0.3450(3) 0.5990(3) 0.3854(2) 0.0737(6) Uani 1.000000 .
O2 O -0.2008(3) 0.7922(3) 0.5233(2) 0.0767(7) Uani 1.000000 .
N1 N 0.4062(3) 0.7663(3) 0.6061(2) 0.0621(6) Uani 1.000000 .
H1 H 0.4740(3) 0.7208(3) 0.5678(2) 0.0745(8) Uiso 1.000000 R
C1 C 0.2194(3) 0.6438(3) 0.4137(3) 0.0551(7) Uani 1.000000 .
C2 C 0.2414(3) 0.7452(3) 0.5408(2) 0.0516(6) Uani 1.000000 .
C3 C 0.0973(3) 0.7954(3) 0.5699(2) 0.0538(7) Uani 1.000000 .
C4 C -0.0746(3) 0.7517(3) 0.4911(3) 0.0557(7) Uani 1.000000 .
C5 C -0.0964(3) 0.6518(3) 0.3659(3) 0.0538(7) Uani 1.000000 .
C6 C 0.0460(3) 0.6041(3) 0.3281(3) 0.0535(6) Uani 1.000000 .
C7 C 0.0240(4) 0.5143(3) 0.2102(3) 0.0640(7) Uani 1.000000 .
H7 H 0.1185(4) 0.4816(3) 0.1845(3) 0.0769(9) Uiso 1.000000 R
C8 C -0.1391(4) 0.4737(4) 0.1310(3) 0.0722(9) Uani 1.000000 .
H8 H -0.1538(4) 0.4148(4) 0.0517(3) 0.0866(10) Uiso 1.000000 R
C9 C -0.2787(4) 0.5203(4) 0.1694(3) 0.0726(9) Uani 1.000000 .
H9 H -0.3877(4) 0.4924(4) 0.1159(3) 0.0872(10) Uiso 1.000000 R
C10 C -0.2589(4) 0.6088(4) 0.2876(3) 0.0652(8) Uani 1.000000 .
H10 H -0.3541(4) 0.6388(4) 0.3137(3) 0.0782(9) Uiso 1.000000 R
C11 C 0.4913(3) 0.8533(3) 0.7312(3) 0.0562(7) Uani 1.000000 .
H11 H 0.4137(3) 0.8483(3) 0.7890(3) 0.0674(8) Uiso 1.000000 R
C12 C 0.5351(4) 1.0283(3) 0.7101(3) 0.0671(8) Uani 1.000000 .
H12a H 0.6096(4) 1.0352(3) 0.6512(3) 0.0805(9) Uiso 1.000000 R
H12b H 0.4316(4) 1.0779(3) 0.6701(3) 0.0805(9) Uiso 1.000000 R
C13 C 0.6241(4) 1.1174(4) 0.8417(3) 0.0723(8) Uani 1.000000 .
H13a H 0.6553(4) 1.2281(4) 0.8271(3) 0.0868(10) Uiso 1.000000 R
H13b H 0.5459(4) 1.1176(4) 0.8978(3) 0.0868(10) Uiso 1.000000 R
C14 C 0.7830(4) 1.0392(4) 0.9099(3) 0.0764(9) Uani 1.000000 .
H14a H 0.8668(4) 1.0507(4) 0.8588(3) 0.0917(11) Uiso 1.000000 R
H14b H 0.8320(4) 1.0935(4) 0.9956(3) 0.0917(11) Uiso 1.000000 R
C15 C 0.7427(4) 0.8626(4) 0.9262(3) 0.0727(8) Uani 1.000000 .
H15a H 0.8480(4) 0.8143(4) 0.9634(3) 0.0873(10) Uiso 1.000000 R
H15b H 0.6711(4) 0.8519(4) 0.9871(3) 0.0873(10) Uiso 1.000000 R
C16 C 0.6516(3) 0.7736(4) 0.7960(3) 0.0617(7) Uani 1.000000 .
H16a H 0.6210(3) 0.6629(4) 0.8109(3) 0.0741(9) Uiso 1.000000 R
H16b H 0.7276(3) 0.7736(4) 0.7381(3) 0.0741(9) Uiso 1.000000 R
loop_
_atom_site_aniso_label
_atom_site_aniso_U_11
_atom_site_aniso_U_22
_atom_site_aniso_U_33
_atom_site_aniso_U_12
_atom_site_aniso_U_13
_atom_site_aniso_U_23
Cl1 0.0665(5) 0.0793(6) 0.0682(5) 0.0163(4) 0.0243(4) -0.0129(4)
O1 0.0556(12) 0.0794(15) 0.0882(14) 0.0072(10) 0.0261(10) -0.0253(11)
O2 0.0580(12) 0.1047(18) 0.0739(13) 0.0209(11) 0.0259(10) -0.0001(12)
N1 0.0512(13) 0.0666(15) 0.0701(14) 0.0071(11) 0.0205(11) -0.0137(11)
C1 0.0528(15) 0.0464(14) 0.0685(16) 0.0038(11) 0.0211(12) -0.0024(12)
C2 0.0536(15) 0.0440(14) 0.0600(15) 0.0045(11) 0.0197(12) 0.0017(11)
C3 0.0600(16) 0.0491(15) 0.0566(15) 0.0084(12) 0.0222(12) 0.0017(11)
C4 0.0537(15) 0.0582(16) 0.0609(15) 0.0123(12) 0.0218(12) 0.0106(12)
C5 0.0549(15) 0.0460(14) 0.0632(15) 0.0061(11) 0.0189(12) 0.0069(11)
C6 0.0553(15) 0.0417(14) 0.0643(15) 0.0042(11) 0.0173(12) -0.0001(11)
C7 0.0645(17) 0.0559(17) 0.0700(17) 0.0053(13) 0.0156(14) -0.0076(13)
C8 0.072(2) 0.0646(19) 0.0735(19) 0.0001(15) 0.0109(15) -0.0123(14)
C9 0.0615(18) 0.0686(19) 0.079(2) -0.0050(15) 0.0042(15) -0.0001(15)
C10 0.0554(16) 0.0651(18) 0.0749(18) 0.0063(13) 0.0161(13) 0.0054(14)
C11 0.0507(14) 0.0601(17) 0.0584(15) 0.0056(12) 0.0160(11) -0.0049(12)
C12 0.0687(18) 0.0617(18) 0.0692(17) 0.0102(14) 0.0141(14) -0.0030(14)
C13 0.0747(19) 0.067(2) 0.0736(18) 0.0032(15) 0.0197(15) -0.0166(14)
C14 0.0633(18) 0.091(2) 0.0703(18) 0.0037(16) 0.0119(14) -0.0193(16)
C15 0.0616(18) 0.091(2) 0.0657(17) 0.0179(16) 0.0126(14) 0.0043(15)
C16 0.0542(15) 0.0621(17) 0.0719(17) 0.0095(13) 0.0208(13) 0.0024(13)
loop_
_atom_type_symbol
_atom_type_scat_dispersion_real
_atom_type_scat_dispersion_imag
_atom_type_scat_source
_atom_type_scat_dispersion_source
H 0.00000 0.00000 'International Tables Volume C Table 6.1.1.4 (pp. 500-502)'
'Henke, Gullikson and Davis, At. Data and Nucl. Data Tables, 1993, 54, 2'
C 0.00347 0.00161 'International Tables Volume C Table 6.1.1.4 (pp. 500-502)'
'Henke, Gullikson and Davis, At. Data and Nucl. Data Tables, 1993, 54, 2'
Cl 0.14873 0.16029 'International Tables Volume C Table 6.1.1.4 (pp. 500-502)'
'Henke, Gullikson and Davis, At. Data and Nucl. Data Tables, 1993, 54, 2'
O 0.01158 0.00611 'International Tables Volume C Table 6.1.1.4 (pp. 500-502)'
'Henke, Gullikson and Davis, At. Data and Nucl. Data Tables, 1993, 54, 2'
N 0.00653 0.00323 'International Tables Volume C Table 6.1.1.4 (pp. 500-502)'
'Henke, Gullikson and Davis, At. Data and Nucl. Data Tables, 1993, 54, 2'
loop_
_geom_angle_atom_site_label_1
_geom_angle_atom_site_label_2
_geom_angle_atom_site_label_3
_geom_angle
C2 N1 H1 114.38(14)
C11 N1 H1 114.38(14)
C11 N1 C2 131.2(2)
C2 C1 O1 119.0(2)
C6 C1 O1 122.0(2)
C6 C1 C2 119.1(2)
C1 C2 N1 110.5(2)
C3 C2 N1 131.7(2)
C3 C2 C1 117.7(2)
C2 C3 Cl1 122.7(2)
C4 C3 Cl1 113.02(19)
C4 C3 C2 124.3(2)
C3 C4 O2 122.6(3)
C5 C4 O2 119.5(2)
C5 C4 C3 117.9(2)
C6 C5 C4 120.2(2)
C10 C5 C4 119.5(2)
C10 C5 C6 120.3(3)
C5 C6 C1 120.6(2)
C7 C6 C1 119.8(2)
C7 C6 C5 119.6(3)
H7 C7 C6 120.07(17)
C8 C7 C6 119.9(3)
C8 C7 H7 120.07(19)
H8 C8 C7 119.93(19)
C9 C8 C7 120.1(3)
C9 C8 H8 119.93(17)
H9 C9 C8 119.66(17)
C10 C9 C8 120.7(3)
C10 C9 H9 119.66(18)
C9 C10 C5 119.4(3)
H10 C10 C5 120.31(17)
H10 C10 C9 120.31(18)
H11 C11 N1 108.69(14)
C12 C11 N1 110.6(2)
C12 C11 H11 108.69(15)
C16 C11 N1 109.5(2)
C16 C11 H11 108.69(15)
C16 C11 C12 110.7(2)
H12a C12 C11 109.69(15)
H12b C12 C11 109.69(15)
H12b C12 H12a 108.2
C13 C12 C11 109.9(2)
C13 C12 H12a 109.69(18)
C13 C12 H12b 109.69(17)
H13a C13 C12 109.38(17)
H13b C13 C12 109.38(18)
H13b C13 H13a 108.0
C14 C13 C12 111.2(3)
C14 C13 H13a 109.38(19)
C14 C13 H13b 109.38(19)
H14a C14 C13 109.36(19)
H14b C14 C13 109.36(16)
H14b C14 H14a 108.0
C15 C14 C13 111.3(3)
C15 C14 H14a 109.36(17)
C15 C14 H14b 109.36(16)
H15a C15 C14 109.25(17)
H15b C15 C14 109.25(17)
H15b C15 H15a 107.9
C16 C15 C14 111.8(2)
C16 C15 H15a 109.25(16)
C16 C15 H15b 109.25(17)
C15 C16 C11 110.4(2)
H16a C16 C11 109.57(15)
H16a C16 C15 109.57(17)
H16b C16 C11 109.57(15)
H16b C16 C15 109.57(16)
H16b C16 H16a 108.1
loop_
_geom_bond_atom_site_label_1
_geom_bond_atom_site_label_2
_geom_bond_distance
Cl1 C3 1.738(2)
O1 C1 1.211(3)
O2 C4 1.223(3)
N1 H1 0.8600
N1 C2 1.337(3)
N1 C11 1.463(3)
C1 C2 1.522(3)
C1 C6 1.475(4)
C2 C3 1.370(4)
C3 C4 1.446(4)
C4 C5 1.499(4)
C5 C6 1.392(4)
C5 C10 1.383(4)
C6 C7 1.392(4)
C7 H7 0.9300
C7 C8 1.386(4)
C8 H8 0.9300
C8 C9 1.372(5)
C9 H9 0.9300
C9 C10 1.391(4)
C10 H10 0.9300
C11 H11 0.9800
C11 C12 1.519(4)
C11 C16 1.521(4)
C12 H12a 0.9700
C12 H12b 0.9700
C12 C13 1.529(4)
C13 H13a 0.9700
C13 H13b 0.9700
C13 C14 1.515(5)
C14 H14a 0.9700
C14 H14b 0.9700
C14 C15 1.515(5)
C15 H15a 0.9700
C15 H15b 0.9700
C15 C16 1.522(4)
C16 H16a 0.9700
C16 H16b 0.9700
loop_
_refln_index_h
_refln_index_k
_refln_index_l
_refln_F_squared_meas
_refln_F_squared_sigma
_refln_scale_group_code
0 0 2 61574.1 857.94 7
0 0 -2 64328.4 585.107 6
0 0 3 1259.64 86.5496 2
0 0 -3 2745.58 205.384 8
0 0 -3 2698.9 227.112 7
0 0 -4 188.233 39.2336 2
0 0 -4 301.812 68.9133 6
0 0 -4 1282.88 171.814 7
0 0 4 472.477 59.326 2
0 0 -4 1352.62 163.899 8
0 0 -5 17583.1 452.567 6
0 0 -5 17733.7 706.217 7
0 0 -5 16940.9 632.188 8
0 0 -6 54.6529 20.457 2
0 0 -6 190.523 77.4466 8
0 0 -6 91.3444 65.7199 7
0 0 -7 5075.02 275.046 6
0 0 -7 5247.87 217.414 2
0 0 -8 1362.62 157.422 6
0 0 -8 1579.12 275.807 7
0 0 -8 1204.68 106.456 2
0 0 9 7847.15 687.848 5
0 0 -9 6342.75 574.009 7
0 0 10 4471.41 547.533 5
0 0 -10 3356.11 438.569 7
0 0 11 100.607 90.4216 5
0 0 -11 217.382 122.479 7
0 0 12 603.52 238.356 5
0 1 -12 1.0483 47.2206 7
0 -1 12 -117.969 170.173 5
0 1 -11 1192.42 292.114 7
0 -1 11 1880.98 401.22 5
0 1 -10 93.5698 56.0016 7
0 1 -9 3808.61 466.829 7
0 1 -8 1700.29 167.173 4
0 1 -8 1881.82 317.46 7
0 1 -7 10926.3 722.479 7
0 1 -7 9704.06 389.205 4
0 -1 6 13658.3 342.858 2
0 1 -6 16169.6 475.727 4
0 1 -5 264.729 57.2048 4
0 1 -5 391.392 121.305 7
0 -1 5 226.569 41.8989 2
0 -1 4 13114.3 359.17 6
0 1 -4 13930.3 629.012 7
0 1 -4 13192.6 381.341 4
0 -1 4 13214.1 314.532 2
0 -1 3 15967.4 339.2 2
0 1 -3 15508 394.71 4
0 -1 3 15468.5 397.941 8
0 1 -2 996.317 95.4612 4
0 -1 1 47083.7 482.926 1
0 -1 -1 947.492 86.4969 5
0 -1 -2 959.718 101.604 4
0 1 2 927.091 94.018 4
0 -1 -3 18919.8 443.593 7
0 1 3 17797.3 436.586 7
0 -1 -3 18664.4 493.587 4
0 -1 -4 84447.4 1506.9 8
0 -1 -4 86018.8 962.882 2
0 -1 -4 84942.4 1172.08 7
0 -1 -5 240781 1686 2
0 -1 -5 248345 2838.49 8
0 -1 -5 243114 2319.57 7
0 -1 -6 976.089 129.61 6
0 -1 -6 628.04 130.122 7
0 -1 -6 587.504 137.925 8
0 -1 -6 779.218 102.656 2
0 -1 -7 2393.36 320.558 8
0 -1 -7 2358.48 227.655 6
0 1 7 2329.13 290.886 5
0 -1 -7 2012.01 159.917 2
0 -1 -7 2212.82 276.073 7
0 -1 -8 1747.57 261.993 7
0 1 8 2137.33 302.27 5
0 -1 -8 2059.69 311.862 8
0 -1 -8 1823.11 206.73 6
0 -1 -8 1511.44 139.129 2
0 1 9 650.662 190.65 5
0 -1 -9 408.646 139.856 7
0 -1 -9 690.554 136.132 6
0 1 10 2386.14 390.414 5
0 -1 -10 1351.12 259.179 7
0 1 11 53.712 65.5801 5
0 1 12 -34.6694 106.871 5
0 2 -12 211.454 123.176 7
0 -2 12 116.69 136.547 5
0 2 -11 710.243 242.044 7
0 2 -10 70.6022 111.618 7
0 2 -9 2364.11 396.359 7
0 2 -8 159.656 126.679 7
0 2 -8 157.498 59.2831 4
0 2 -7 3839.82 280.05 4
0 2 -7 4418.83 485.052 7
0 2 -6 255.232 68.3984 4
0 2 -6 324.368 124.702 7
0 2 -5 198.425 64.7854 4
0 2 -4 619.19 105.941 4
0 2 -3 21456.5 617.137 4
0 2 -2 803189 3800.42 4
0 -2 2 800127 2968.21 1
0 2 -1 999999 4251.32 4
0 2 0 124.205 46.5576 4
0 2 0 109.224 33.3477 3
0 -2 0 194.478 52.8952 7
0 -2 0 85.3094 20.2075 3
0 2 1 7087.59 208.742 7
0 -2 -1 6898.24 211.447 7
0 2 1 6039.9 323.863 4
0 2 2 3347.49 244.592 4
0 2 3 36098.5 806.478 5
0 2 3 34120.5 796.247 4
0 2 4 59934.9 1123.89 5
0 2 4 58909 1038.86 4
0 -2 -5 39527.4 763.226 7
0 -2 -5 38161.5 839.931 2
0 2 6 2864.27 297.54 5
0 -2 -6 2526.28 220.668 7
0 -2 -6 3019.03 368.354 8
0 -2 -6 2469.44 212.427 2
0 2 7 6235.65 472.457 5
0 -2 -7 5760.37 336.5 2
0 -2 -7 5240.38 353.551 7
0 -2 -8 7256.49 458.149 6
0 2 8 6793.84 542.23 5
0 -2 -8 5860.55 344.232 2
0 -2 -8 5633.65 404.161 7
0 -2 -8 7051.25 639.702 8
0 2 9 749.757 189.346 5
0 -2 -9 1026.66 188.226 6
0 -2 -9 1019.94 267.826 8
0 2 10 2504.07 378.475 5
0 2 11 468.933 194.106 5
0 2 12 89.5353 69.2118 5
0 3 -12 114.652 63.6579 7
0 3 -11 91.2407 77.7071 7
0 3 -10 38.547 59.2328 7
0 3 -9 38.3455 109.523 7
0 3 -8 1658.8 323.792 7
0 3 -8 1663.02 225.762 4
0 3 -7 32.2351 72.9605 7
0 3 -7 -3.26408 47.2138 4
0 3 -6 6715.4 446.592 4
0 3 -6 7399.43 635.669 7
0 3 -5 109.232 65.058 4
0 3 -4 14545.9 641.399 4
0 3 -3 2827.29 282.442 4
0 -3 3 2059.11 188.735 1
0 3 -2 23386.8 809.065 4
0 3 -1 136531 1901.96 4
0 3 -1 133869 1124.57 3
0 3 0 32536.2 945.727 4
0 3 0 33291.5 753.02 7
0 3 0 32534.7 616.039 3
0 -3 0 33112.1 645.914 3
0 -3 -1 3028.17 217.156 3
0 3 1 2919.03 272.958 4
0 -3 -1 3257.2 202.551 7
0 3 1 3452.32 197.922 7
0 3 2 28736 878.038 4
0 -3 -2 27901 430.246 7
0 3 3 318937 2667.51 5
0 3 3 296667 2911.97 4
0 3 4 87555.7 1415.71 5
0 3 4 84945.7 1521.45 4
0 3 5 6044.64 397.832 4
0 -3 -6 5778.58 559.233 8
0 -3 -6 4263.13 330.641 2
0 3 6 5450.26 414.231 5
0 3 7 151.086 87.3675 5
0 -3 -7 81.7513 81.4371 8
0 -3 -7 95.4209 50.9993 2
0 -3 -7 58.9933 27.1323 7
0 -3 -8 1404.47 192.847 2
0 -3 -8 1999.11 369.726 8
0 3 8 1605.72 261.007 5
0 -3 -9 196.27 130.128 8
0 3 9 294.01 125.58 5
0 -3 -10 638.55 223.182 8
0 3 10 434.736 142.72 5
0 3 11 68.6157 87.9379 5
0 4 -12 -156.764 174.127 7
0 4 -11 -77.8421 118.805 7
0 4 -10 187.535 147.599 7
0 4 -9 -112.858 112.826 7
0 4 -8 1178.13 291.222 7
0 4 -8 1299.07 227.674 4
0 4 -7 104.214 74.7558 4
0 4 -7 11.6041 54.8635 7
0 4 -6 -16.1485 34.9171 4
0 4 -6 -161.765 121.637 7
0 4 -5 51.309 63.9619 4
0 4 -4 24282.5 962.599 4
0 -4 3 170424 1775.83 1
0 4 -3 175716 2531.87 4
0 4 -2 5723.72 464.898 7
0 4 -2 5163.58 426.797 4
0 4 -1 427.511 115.469 7
0 4 -1 352.313 114.416 4
0 4 0 66.362 47.7794 7
0 4 0 25.752 58.0215 4
0 -4 0 49.9773 41.1502 3
0 -4 -1 647.887 110.991 3
0 4 1 813.387 112.17 7
0 4 1 671.901 155.562 4
0 -4 -2 37417.1 676.265 7
0 4 2 35215.5 1132.17 4
0 -4 -2 33916.5 907.666 3
0 4 3 12967.3 590.671 5
0 4 3 11662.6 655.875 4
0 4 4 1493.61 231.606 4
0 4 5 4366.06 384.247 4
0 4 6 2383.03 274.876 5
0 -4 -6 2521.25 402.427 8
0 4 6 2562.64 297.142 4
0 -4 -7 6419.3 668.439 8
0 -4 -7 5046.25 414.271 2
0 4 7 5341.84 434.286 5
0 -4 -8 1497.63 337.283 8
0 -4 -8 1073.18 193.002 2
0 4 8 1180.16 214.595 5
0 -4 -9 4051.46 585.435 8
0 4 9 3232.92 381.117 5
0 -4 -10 149.548 124.316 8
0 4 10 122.673 75.8786 5
0 -4 -11 787.572 273.72 8
0 4 11 366.603 152.058 5
0 5 -11 -163.766 158.163 7
0 5 -10 160.536 104.377 7
0 5 -9 229.03 153.557 7
0 5 -8 172.851 93.7988 4
0 5 -8 532.316 219.733 7
0 5 -7 92.4808 74.8433 4
0 5 -7 68.3319 61.2124 7
0 5 -6 872.84 206.597 4
0 5 -6 816.893 254.737 7
0 5 -5 301.86 113.983 4
0 5 -5 328.502 150.005 7
0 -5 4 3046.18 283.202 1
0 5 -4 3471.27 401.079 4
0 5 -4 3863.24 464.166 7
0 -5 3 10341.8 462.57 1
0 5 -3 11345.1 728.018 4
0 5 -3 12467.8 767.567 7
0 5 -2 2014.66 309.507 4
0 5 -1 6468.65 571.545 4
0 5 0 1429.35 268.868 4
0 -5 0 1716.27 201.398 3
0 5 0 1548.13 206.616 7
0 -5 -1 52285.6 1130.57 3
0 5 1 53410.3 1588.26 4
0 5 1 56308.9 1113.19 7
0 5 2 60599.8 1682.61 4
0 -5 -2 57522.7 1295.61 3
0 5 2 61022.8 910.529 7
0 -5 -3 1.36972 6.94126 7
0 5 3 1.56589 52.5991 4
0 -5 -3 67.4046 63.8641 3
0 -5 -4 391.034 124.05 3
0 5 4 389.661 140.048 4
0 5 5 4870.67 472.538 4
0 -5 -5 4198.4 435.113 3
0 5 5 4699.82 402.723 5
0 -5 -6 48.2494 80.9638 8
0 5 6 91.0259 55.8073 5
0 5 6 160.962 99.7602 4
0 -5 -7 2941.95 479.857 8
0 5 7 2227.7 294.306 5
0 -5 -8 396.805 174.397 8
0 5 8 234.353 98.1307 5
0 -5 -8 134.917 99.9545 2
0 5 9 63.3893 36.3828 5
0 -5 -9 181.404 120.822 8
0 5 10 -7.97051 56.4099 5
0 -5 -10 203.075 207.387 8
0 6 -10 227.417 185.844 7
0 6 -9 96.6453 118.393 7
0 6 -8 -150.657 113.579 4
0 6 -8 -113.379 105.55 7
0 6 -7 67.4216 51.0752 4
0 6 -7 -35.3449 111.897 7
0 6 -6 5234.85 549.999 4
0 6 -6 2559.22 429.911 7
0 6 -5 4095.7 514.592 7
0 6 -5 5013.55 532.067 4
0 6 -4 22451.9 1149.53 7
0 6 -4 22420.6 1128.41 4
0 -6 4 19005.8 750.289 1
0 6 -3 6983.55 623.95 7
0 -6 3 3407.28 286.989 1
0 6 -2 1734.77 333.792 4
0 6 -2 1911.42 293.81 7
0 6 -1 2193.48 373.375 4
0 6 0 8739.3 713.558 4
0 6 1 20078.8 1078.74 4
0 6 1 20096.3 731.872 7
0 -6 -1 19869.5 767.079 3
0 6 2 830.023 119.331 7
0 -6 -2 714.304 154.359 3
0 6 2 895.095 232.228 4
0 -6 -3 1324.08 226.361 3
0 6 3 1405.87 284.195 4
0 -6 -4 3742.93 410.142 3
0 6 4 4285.34 505.457 4
0 -6 -5 2528.81 355.071 3
0 6 5 3210.09 425.988 4
0 -6 -6 1141.23 251.4 3
0 6 6 1269.97 236.92 5
0 -6 -6 1236.65 315.912 8
0 6 6 1247.17 246.068 4
0 6 7 3978.28 463.175 4
0 -6 -7 4275.99 615.832 8
0 6 7 3413.4 384.911 5
0 -6 -7 3617.14 486.427 3
0 6 8 202.728 76.0354 5
0 -6 -8 173.13 116.267 2
0 -6 -8 131.954 53.923 3
0 -6 -8 375.843 186.94 8
0 6 9 329.694 135.858 5
0 -6 -9 517.146 241.531 8
0 -6 -9 327.845 162.033 3
0 7 -9 87.5376 130.753 7
0 7 -8 43.5342 68.783 4
0 7 -8 358.817 202.002 7
0 7 -7 2455.33 465.255 7
0 7 -7 3598.79 499.303 4
0 7 -6 262.04 169.155 4
0 7 -6 174.535 135.849 7
0 7 -5 1792.27 353.987 4
0 7 -5 1628.64 338.27 7
0 -7 4 435.629 128.173 1
0 7 -4 438.407 184.689 4
0 7 -4 274.694 128.505 7
0 -7 3 133.942 64.9263 1
0 7 -3 44.0395 94.0488 4
0 7 -2 465.651 162.972 7
0 7 -2 546.68 207.513 4
0 7 -1 2059.42 306.033 7
0 7 -1 2099.19 384.622 4
0 7 0 16749.5 1100.59 4
0 7 1 4549.61 567.056 4
0 -7 -1 4601.59 405.846 3
0 7 2 985.159 263.64 4
0 -7 -2 960.524 186.996 3
0 7 2 948.722 139.551 7
0 -7 -3 383.083 130.459 3
0 7 3 295.378 144.155 4
0 7 4 -10.682 49.8022 4
0 -7 -4 -78.8529 90.9088 3
0 -7 -5 780.666 202.058 3
0 7 5 722.493 233.472 4
0 -7 -5 697.988 222.793 8
0 -7 -6 -7.47938 78.4094 8
0 -7 -6 -128.848 115.386 3
0 7 6 2.15222 64.1648 4
0 7 7 225.354 124.648 4
0 -7 -7 265.152 157.545 8
0 -7 -7 353.939 176.729 3
0 7 8 136.463 97.4731 5
0 -7 -8 6.28161 65.2521 3
0 -7 -8 217.453 152.958 8
0 -7 -8 43.7682 66.8214 2
0 8 -8 746.203 271.989 7
0 8 -8 833.643 268.384 4
0 8 -7 669.278 241.93 4
0 8 -7 519.504 222.986 7
0 8 -6 1662.79 384.17 7
0 8 -6 1736.99 384.121 4
0 8 -5 -9.12217 76.9377 7
0 8 -5 -43.2441 93.3241 4
0 8 -4 3572.82 538.255 4
0 8 -4 1665.13 346.81 7
0 8 -3 -80.3988 82.9723 7
0 8 -3 181.274 93.8533 4
0 8 -2 600.614 246.076 4
0 8 -2 1052.03 262.765 7
0 8 -1 3614.41 563.626 4
0 8 -1 3427.25 420.26 7
0 8 0 3920.93 568.669 4
0 8 0 3204.97 376.113 7
0 8 1 860.683 258.627 4
0 -8 -2 358.459 121.487 3
0 8 2 455.516 178.575 4
0 8 3 1917.53 397.297 4
0 -8 -3 1014.28 206.047 3
0 -8 -4 461.908 152.905 3
0 8 4 707.952 241.097 4
0 8 5 863.482 270.311 4
0 -8 -5 721.844 266.386 8
0 -8 -5 442.63 161.686 3
0 -8 -6 308.191 134.376 3
0 8 6 530.595 217.87 4
0 -8 -6 800.638 288.914 8
0 -8 -7 370.376 195.73 8
0 8 7 -21.1747 52.2749 4
0 -8 -7 248.044 127.263 3
0 9 -7 269.091 164.441 4
0 9 -7 28.8146 88.1328 7
0 9 -6 332.157 209.666 7
0 9 -6 -134.024 131.804 4
0 9 -5 348.207 183.413 7
0 9 -5 530.57 222.58 4
0 9 -4 -51.182 127.127 7
0 9 -4 203.548 143.649 4
0 9 -3 -22.1229 100.539 7
0 9 -3 658.794 249.069 4
0 9 -2 1742.37 428.413 4
0 9 -2 1389.1 307.663 7
0 9 -1 998.361 241.842 7
0 9 -1 1438.72 392.622 4
0 9 0 540.267 274.073 4
0 9 1 744.566 289.785 4
0 9 2 -10.3203 119.727 4
0 9 3 899.61 314.307 4
0 -9 -4 71.8528 99.2032 8
0 9 4 120.884 95.6508 4
0 -9 -5 806.748 258.186 8
0 9 5 691.954 268.867 4
0 10 -4 135.191 105.992 4
0 10 -4 92.1593 119.212 7
0 10 -3 -90.7835 102.201 7
0 10 -3 -218.007 167.315 4
0 10 -2 180.406 180.776 4
0 10 -1 -9.76283 78.1548 4
0 10 0 18.2435 140.378 4
0 10 1 91.3864 145.459 4
0 -10 -2 162.535 143.427 8
0 10 2 209.662 272.926 4
-1 10 3 -15.2898 78.1208 4
-1 10 2 604.3 376.31 4
-1 10 1 11.5704 109.224 4
-1 10 0 874.348 322.876 4
-1 10 -1 56.6713 128.933 4
-1 10 -2 330.553 159.777 7
-1 10 -2 -130.155 143.038 4
-1 10 -3 287.301 192.492 4
-1 10 -3 216.324 134.797 7
-1 10 -4 162.232 131.091 7
-1 10 -4 246.483 183.984 4
-1 9 6 64.4481 84.5811 4
-1 9 5 382.328 193.754 4
-1 9 4 117.282 77.6127 4
-1 9 3 -127.894 135.556 4
-1 9 2 522.637 231.292 4
-1 9 1 1701.69 416.541 4
-1 9 0 305.02 201.082 4
-1 9 -1 1284.04 281.568 7
-1 9 -1 1577.92 385.863 4
-1 9 -2 -13.8958 78.8506 4
-1 9 -2 175.324 112.247 7
-1 9 -3 811.956 270.001 7
-1 9 -3 769.082 280.416 4
-1 9 -4 271.503 157.108 4
-1 9 -4 140.404 131.893 7
-1 9 -5 447.51 221.803 7
-1 9 -5 403.024 185.876 4
-1 9 -6 5.38855 111.629 4
-1 9 -6 30.2534 82.5909 7
1 -8 -7 212.432 161.223 8
-1 8 7 65.6777 104.847 4
1 -8 -7 -53.5461 122.847 3
-1 8 6 1517.43 322.258 4
1 -8 -6 1323.78 277.589 3
-1 8 5 139.919 125.704 4
1 -8 -5 -42.5396 80.5505 3
-1 8 4 1939.95 391.747 4
-1 8 3 975.559 274.73 4
-1 8 2 214.75 166.785 4
-1 8 1 847.982 270.511 4
-1 8 0 159.417 83.1285 7
-1 8 0 256.031 151.666 4
-1 8 -1 598.98 220.514 4
-1 8 -1 575 174.373 7
-1 8 -2 20.711 106.227 4
-1 8 -2 182.347 116.971 7
-1 8 -3 143.424 106.156 4
-1 8 -3 23.8707 87.3058 7
-1 8 -4 631.201 224.039 7
-1 8 -4 221.092 132.08 4
-1 8 -5 101.384 75.979 7
-1 8 -5 116.668 100.249 4
-1 8 -6 314.574 212.179 7
-1 8 -6 300.479 167.029 4
-1 8 -7 -87.4889 120.385 4
-1 8 -7 -110.51 115.819 7
-1 8 -8 -147.635 147.245 7
-1 7 9 8.61656 46.3109 5
1 -7 -9 -117.25 78.7669 2
1 -7 -9 14.8063 117.419 3
1 -7 -9 -108.755 123.338 8
1 -7 -8 1190.23 341.14 8
1 -7 -8 879.795 260.33 3
1 -7 -8 656.631 193.442 2
1 -7 -7 592.677 199.532 2
1 -7 -7 570.771 190.807 3
1 -7 -6 403.484 148.55 3
-1 7 6 275.859 139.545 4
-1 7 5 1653.2 317.756 4
1 -7 -5 1316.57 254.126 3
1 -7 -4 46.0086 67.371 3
-1 7 4 14.1866 58.707 4
1 -7 -3 1312.37 213.605 3
-1 7 3 1553.42 328.605 4
-1 7 2 2887.1 271.176 7
-1 7 2 3533.31 502.424 4
1 -7 -2 2805.82 289.397 3
1 -7 -1 860.907 157.812 3
-1 7 1 892.584 244.066 4
-1 7 0 5341.65 609.361 4
-1 7 -1 1313 308.224 4
-1 7 -1 1242.7 253.129 7
-1 7 -2 1275.48 286.561 7
-1 7 -2 1073.81 281.304 4
-1 7 -3 93.6915 93.4563 4
-1 7 -3 132.503 125.085 7
-1 7 -4 4160.49 526.872 4
-1 7 -4 4279.51 563.706 7
-1 7 -5 2873.47 445.792 4
-1 7 -5 2711.22 482.731 7
-1 7 -6 426.106 176.086 4
-1 7 -6 364.112 179.685 7
-1 7 -7 -132.957 127.891 7
-1 7 -7 49.9028 47.4155 4
-1 7 -8 332.603 199.485 7
-1 7 -9 112.592 146.819 7
-1 6 10 706.438 199.228 5
1 -6 -10 685.557 285.679 8
-1 6 9 105.714 59.115 5
1 -6 -9 -4.70913 56.9343 8
1 -6 -9 143.572 101.92 2
1 -6 -8 1143.26 235.184 2
-1 6 8 1913.96 305.19 5
1 -6 -8 2166.29 449.317 8
1 -6 -7 463.592 160.685 2
-1 6 7 580.25 153.317 5
-1 6 6 17.7477 53.9954 4
-1 6 6 127.905 83.8717 5
1 -6 -5 9243.8 644.614 3
-1 6 5 10657.5 741.191 4
-1 6 4 158.047 86.5954 4
1 -6 -4 -61.5142 60.5339 3
1 -6 -3 4916.55 406.55 3
-1 6 3 5161.35 538.903 4
1 -6 -2 -25.5244 29.2891 3
-1 6 2 144.044 90.752 4
-1 6 2 81.8148 46.5385 7
-1 6 1 1686.09 224.874 7
1 -6 -1 1669.05 190.978 3
-1 6 1 1572.26 298.348 4
-1 6 0 2337.86 373.819 4
-1 6 -1 59.2272 81.1652 4
-1 6 -2 1207.92 260.137 4
-1 6 -2 1054.19 242.605 7
1 -6 2 714.098 100.949 1
-1 6 -3 8389.03 681.943 4
-1 6 -3 7942.92 683.457 7
-1 6 -4 2647.87 378.384 4
-1 6 -4 2520.04 401.549 7
-1 6 -5 5145.87 529.355 4
-1 6 -5 4807.05 592.156 7
-1 6 -6 1406.18 349.42 7
-1 6 -6 1631.09 305.589 4
-1 6 -7 1882.56 326.082 4
-1 6 -7 2341.15 459.211 7
-1 6 -8 479.487 220.725 7
-1 6 -9 616.71 251.013 7
-1 6 -10 -20.506 102.946 7
-1 5 11 119.837 135.435 5
1 -5 -11 -119.283 93.7864 8
1 -5 -10 2193.03 462.734 8
-1 5 10 1728.43 304.187 5
-1 5 9 737.732 193.785 5
1 -5 -9 640.852 169.48 2
1 -5 -9 993.934 309.044 8
1 -5 -8 646.726 240.537 8
-1 5 8 678.704 174.526 5
1 -5 -8 409.77 132.019 2
1 -5 -7 255.031 106.184 2
-1 5 7 389.322 129.477 5
-1 5 6 8324.66 580.496 5
-1 5 6 7907.15 597.631 4
-1 5 5 3096.76 357.604 4
-1 5 5 3197.39 357.63 5
-1 5 4 7478.09 574.847 4
-1 5 3 1381.63 112.741 7
-1 5 3 2785.33 357.801 4
-1 5 2 14642 511.726 7
1 -5 -2 14209.4 576.871 3
-1 5 1 285.106 131.526 4
1 -5 -1 241.13 66.5575 3
-1 5 1 266.886 89.5743 7
-1 5 0 30129.6 1177.52 4
-1 5 0 29994.1 993.26 7
-1 5 -1 99.3806 61.4249 4
-1 5 -2 2988.35 367.212 4
1 -5 2 2337.51 170.485 1
-1 5 -3 21007 1037.49 7
-1 5 -3 20204 950.402 4
-1 5 -4 3861.26 414.199 4
-1 5 -4 3588 457.966 7
-1 5 -5 6004.03 623.315 7
-1 5 -5 6236.36 529.365 4
-1 5 -6 108.375 74.0543 4
-1 5 -6 108.51 107.226 7
-1 5 -7 1098.2 295.509 7
-1 5 -7 942.232 207.723 4
-1 5 -8 984.418 294.517 7
-1 5 -9 37.0408 100.623 7
-1 5 -10 492.873 228.737 7
-1 5 -11 825.999 264.943 7
1 -4 -11 452.518 212.43 8
-1 4 11 25.8184 75.5911 5
-1 4 10 1009.59 232.284 5
1 -4 -10 1138.73 314.572 8
-1 4 9 1544.12 268.5 5
1 -4 -9 2174.07 423.441 8
1 -4 -9 1824.72 255.16 2
1 -4 -8 166.479 115.775 8
-1 4 8 78.4773 60.0292 5
1 -4 -8 -11.029 33.8572 2
1 -4 -7 2707.78 308.031 2
-1 4 7 2984.78 335.805 5
1 -4 -6 576.552 132.468 2
-1 4 6 749.939 161.902 5
-1 4 5 16444 769.793 4
-1 4 5 19161.9 811.712 5
-1 4 4 3329.82 332.539 4
-1 4 3 32946.1 1089.16 4
-1 4 2 22734.6 908.422 4
-1 4 2 21808.8 546.54 7
1 -4 -1 14724.2 461.506 3
-1 4 1 16158.6 763.23 4
-1 4 1 16258.5 571.704 7
-1 4 0 21575 753.798 7
-1 4 0 21069.4 863.011 4
-1 4 -1 30409.1 992.131 7
-1 4 -1 29891.2 1018.29 4
-1 4 -2 3499.05 342.161 4
-1 4 -3 10935.7 605.278 4
-1 4 -4 1029.7 187.445 4
-1 4 -5 6541.02 483.442 4
-1 4 -6 2395.21 379.817 7
-1 4 -6 2019.79 266.676 4
-1 4 -7 195.784 154.54 7
-1 4 -7 120.451 71.2891 4
-1 4 -8 6411.24 704.104 7
-1 4 -9 -173.063 161.638 7
-1 4 -10 726.982 252.096 7
-1 4 -11 -55.6896 121.986 7
1 -3 -12 1336.08 353.487 8
-1 3 12 1008.15 254.355 5
-1 3 11 619.18 195.603 5
1 -3 -11 923.671 307.362 8
1 -3 -10 94.5194 125.133 8
-1 3 10 -10.8828 51.9764 5
-1 3 9 261.771 110.273 5
1 -3 -9 166.131 82.8963 2
1 -3 -9 261.77 135.375 8
-1 3 8 1253.94 223.595 5
1 -3 -8 1434.19 215.071 2
1 -3 -8 1213.73 281.881 8
-1 3 7 2265.79 290.223 5
1 -3 -7 1861.42 231.007 2
1 -3 -6 193.139 83.0513 2
-1 3 6 112.472 69.5036 5
1 -3 -5 786.276 146.982 2
-1 3 4 25069.1 828.603 4
-1 3 3 29952.7 868.627 4
-1 3 2 12221 567.393 4
-1 3 2 13081.9 358.657 7
-1 3 1 22699.7 789.486 4
-1 3 1 25440.2 643.606 7
-1 3 0 49379.1 1148.81 4
-1 3 0 55572.2 1095.44 7
-1 3 -1 28645 834.438 4
-1 3 -2 401.969 100.392 4
-1 3 -3 1219.4 173.944 4
-1 3 -4 1114.2 168.42 4
-1 3 -5 5470.84 372.025 4
-1 3 -6 2480.51 247.816 4
-1 3 -6 2491.24 367.68 7
-1 3 -7 102.931 94.9268 7
-1 3 -7 102.498 46.3805 4
-1 3 -8 596.774 187.803 7
-1 3 -9 -57.2016 125.622 7
-1 3 -10 8893.98 898.15 7
-1 3 -11 4353.19 639.431 7
-1 3 -12 -141.268 174.199 7
-1 2 12 26.936 94.1633 5
1 -2 -11 2161.49 422.664 8
-1 2 11 1578.36 315.666 5
-1 2 10 48.8119 71.5088 5
1 -2 -10 178.335 131.968 8
1 -2 -9 2494.86 275.821 7
-1 2 9 3037 377.38 5
1 -2 -9 3155.12 297.419 2
1 -2 -9 3698.06 484.873 8
-1 2 8 1417.86 242.893 5
1 -2 -8 1698.69 309.839 8
1 -2 -8 1328.89 183.277 7
1 -2 -8 1601.66 210.832 2
1 -2 -7 38110.1 946.793 2
1 -2 -7 41193 1447.77 8
-1 2 7 41506.1 1221.97 5
1 -2 -6 2512.85 235.484 2
1 -2 -6 1983.01 166.924 7
1 -2 -5 48400.2 717.434 7
-1 2 5 51265.5 867.131 7
-1 2 4 33495.7 567.502 7
1 -2 -4 40789.2 899.202 2
1 -2 -3 33613.4 769.814 2
-1 2 3 27527.8 421.922 7
-1 2 2 191.838 55.1047 4
-1 2 1 53197.4 983.327 4
-1 2 1 56918.5 732.845 7
-1 2 0 5066.78 299.596 4
-1 2 -1 147696 1547.08 4
-1 2 -2 6235.62 309.708 4
-1 2 -3 34071.9 728.347 4
-1 2 -4 20.6318 27.5276 4
-1 2 -5 2967.71 355.871 7
1 -2 5 3047.04 176.094 2
-1 2 -5 2922.27 203.918 4
-1 2 -6 19990.4 533.059 4
-1 2 -6 22157.3 1036.68 7
-1 2 -7 895.79 238.045 7
-1 2 -7 695.224 99.5629 4
-1 2 -8 1021.18 235.25 7
-1 2 -9 33.5859 81.1494 7
-1 2 -10 108.471 123.608 7
-1 2 -11 -42.556 84.9942 7
-1 2 -12 316.608 190.982 7
-1 1 12 163.12 122.597 5
-1 1 11 227.681 159.275 5
1 -1 -10 -85.426 83.7351 7
-1 1 10 48.9015 74.0426 5
1 -1 -10 95.828 102.583 8
-1 1 9 148.842 121.475 5
1 -1 -9 91.1459 50.8243 2
1 -1 -9 139.507 87.4315 7
1 -1 -9 245.401 109.676 8
1 -1 -8 6040.24 535.497 8
1 -1 -8 4734.42 300.5 2
-1 1 8 5949.37 520.108 5
1 -1 -8 5081.54 275.698 6
1 -1 -8 5747.6 461.819 7
1 -1 -7 6151.54 283.065 6
1 -1 -7 5883.2 337.676 2
-1 1 7 7222.2 526.909 5
1 -1 -7 6831.56 540.041 8
1 -1 -7 6135.21 435.643 7
1 -1 -6 14601.3 515.398 2
1 -1 -6 15903.6 634.196 7
1 -1 -5 44827.4 853.495 2
1 -1 -5 46011.6 964.171 7
1 -1 -4 41336.9 777.071 2
1 -1 -4 38332.8 757.005 7
1 -1 -3 7022.3 258.245 7
-1 1 3 7415.37 288.861 7
-1 1 2 278900 1560.01 7
1 -1 -2 302563 1849.62 2
1 -1 -1 69974.5 978.999 5
1 -1 -1 69139.8 840.336 2
1 -1 0 71531.5 768.558 6
-1 1 0 67719.1 778.582 4
-1 1 -1 6968.45 232.952 4
1 -1 2 35631.2 504.202 4
-1 1 -2 36193.2 496.382 4
-1 1 -3 8150.58 219.685 4
1 -1 3 8475.54 220.82 4
-1 1 -4 23345 379.199 4
-1 1 -4 25840.8 635.355 6
-1 1 -5 4004.09 391.046 7
-1 1 -5 3347.16 244.168 6
-1 1 -6 971.163 200.51 7
-1 1 -6 741.562 126.313 6
-1 1 -7 1198.3 236.636 7
-1 1 -7 964.757 148.539 6
-1 1 -8 2850.94 272.513 6
-1 1 -8 3262.06 427.962 7
-1 1 -9 2916.3 290.201 6
-1 1 -9 4313.87 525.094 7
-1 1 -10 1875.84 364.684 7
-1 1 -11 288.471 144.193 7
1 -1 12 -36.5508 81.323 5
-1 1 -12 -91.6838 115.427 7
-1 0 12 457.349 174.796 5
-1 0 11 1271.66 302.899 5
1 0 -11 951.835 246.948 7
1 0 -10 377.995 168.128 7
-1 0 10 416.064 170.605 5
-1 0 9 379.003 139.241 5
1 0 -9 374.796 85.013 2
1 0 -9 525.872 151.068 8
1 0 -9 289.938 136.674 7
1 0 -8 13190 691.266 8
-1 0 8 14120.5 802.016 5
1 0 -8 12362.7 733.032 7
1 0 -8 11569.4 444.128 2
1 0 -7 897.62 75.8705 6
1 0 -7 1392.88 211.039 8
1 0 -7 1212.47 137.869 2
1 0 -7 1209.45 200.072 7
1 0 -6 51770.1 1244.62 7
1 0 -6 52705.8 1194.63 8
1 0 -5 17296.9 482.445 2
1 0 -5 18675.7 689.735 7
1 0 -4 499.409 72.5977 2
1 0 -4 597.137 113.15 7
1 0 -3 52402.9 937.504 7
1 0 -3 53433.7 699.159 2
-1 0 2 105134 1134.22 1
-1 0 2 106008 1211.46 7
1 0 1 6845.24 241.887 6
-1 0 -1 6782.06 148.355 2
-1 0 -3 34082.4 714.754 6
-1 0 -3 27908.9 775.893 7
-1 0 -4 17074.6 690.22 7
-1 0 -4 17904.1 539.166 6
-1 0 -5 23208.5 863.005 7
-1 0 -5 22230.3 653.079 6
-1 0 -6 3554.92 284.224 6
-1 0 -6 3586.98 367.046 7
-1 0 -7 655.967 164.831 7
-1 0 -7 575.987 121.091 6
-1 0 -8 836.409 152.071 6
-1 0 -8 964.673 220.469 7
-1 0 -9 1392.59 203.23 6
-1 0 -9 1364.53 270.078 7
1 0 10 312.229 156.144 5
-1 0 -10 293.957 143.506 7
-1 0 -11 123.399 103.245 7
1 0 11 16.5267 82.7612 5
1 0 12 -69.95 103.426 5
-1 -1 12 -140.729 127.693 5
1 1 -12 -40.7852 89.6033 7
-1 -1 11 126.002 81.2757 5
1 1 -11 477.882 187.346 7
1 1 -10 2.1548 73.5479 7
-1 -1 10 -14.2895 99.0167 5
1 1 -9 205.561 98.2941 7
-1 -1 9 145.814 69.4425 5
1 1 -8 1514.28 169.032 2
1 1 -8 1679.29 274.914 7
1 1 -7 42011 871.568 2
1 1 -7 46056.2 1391.41 7
1 1 -6 49247.6 1335.2 7
1 1 -6 46062.7 900.291 8
1 1 -6 45908.3 871.014 2
1 1 -5 379.55 76.9094 2
1 1 -5 409.834 72.6366 8
1 1 -5 451.099 114.527 7
1 1 -4 8363.08 282.694 8
1 1 -4 8780.72 478.828 7
1 1 -4 8522.87 337.085 2
1 1 -3 65792.3 897.819 2
-1 -1 3 69572.7 1116.42 1
-1 -1 2 321602 1907.55 1
1 1 -2 364572 2040.68 2
1 1 -1 33883.6 601.113 2
-1 -1 1 31838 683.964 7
1 1 0 9212.17 293.841 8
-1 -1 0 9854.36 332.122 3
1 1 0 9900.47 330.913 4
-1 -1 -1 64597.7 960.385 3
-1 -1 -1 66975.4 801.155 4
1 1 1 65806.9 834.675 4
1 1 2 85310.8 905.778 4
-1 -1 -2 84033.3 864.729 4
-1 -1 -3 693.459 100.575 7
-1 -1 -3 758.779 84.648 4
1 1 3 823.798 88.0128 4
-1 -1 -4 16684.7 415.489 4
-1 -1 -4 18333.1 635.472 7
-1 -1 -4 18231.8 736.481 8
-1 -1 -5 1513.68 203.826 7
-1 -1 -5 1663.18 183.647 6
-1 -1 -5 1356.95 120.634 4
-1 -1 -5 1253.28 103.072 2
-1 -1 -6 115.439 36.9253 4
-1 -1 -6 178.167 87.1819 7
-1 -1 -6 133.336 32.6667 2
-1 -1 -6 173.68 76.7041 6
-1 -1 -7 7064.32 450.906 6
-1 -1 -7 6400.39 485.352 7
1 1 8 942.134 221.327 5
-1 -1 -8 985.342 185.025 6
-1 -1 -8 878.174 191.5 7
1 1 9 574.277 183.833 5
-1 -1 -9 656.515 186.254 7
-1 -1 -9 349.187 108.899 6
-1 -1 -10 815.924 206.388 7
1 1 10 1130.01 264.959 5
1 1 11 562.513 208.73 5
1 1 12 185.147 168.798 5
1 2 -12 1078.35 294.849 7
-1 -2 12 1190.47 315.324 5
-1 -2 11 119.713 90.6982 5
1 2 -11 283.614 184.969 7
1 2 -10 809.047 231.534 7
1 2 -9 906.62 223.481 7
1 2 -9 955.949 166.936 4
1 2 -8 2047.12 326.391 7
1 2 -8 2011.96 237.157 4
1 2 -7 12963.2 792.216 7
1 2 -7 11775.2 560.314 4
-1 -2 6 280.278 62.6524 6
1 2 -6 575.638 115.875 4
1 2 -6 623.756 166.541 7
1 2 -5 1695.34 193.146 4
-1 -2 5 1252.16 110.462 6
-1 -2 4 8574.79 451.901 1
1 2 -4 7779.6 412.931 4
-1 -2 3 42341.4 851.041 1
1 2 -3 42499 945.124 4
1 2 -2 600878 3484.88 4
-1 -2 1 88078.6 942.059 8
1 2 -1 96827.9 1315.15 4
1 2 0 27904.1 739.096 4
-1 -2 0 27755 653.902 3
1 2 1 13878.8 532.094 4
-1 -2 -1 13361 496.482 3
-1 -2 -1 15638.3 408.635 7
-1 -2 -1 14987.9 339.183 5
1 2 1 15864.7 358.704 5
-1 -2 -2 34887.7 865.308 3
1 2 2 37126.5 629.888 5
1 2 2 35655 818.092 4
1 2 3 3229.3 231.817 5
1 2 3 2795.08 231.931 4
-1 -2 -4 2041.57 186.368 7
1 2 4 2377.43 216.92 4
1 2 4 2456.2 233.584 5
-1 -2 -5 1154.51 157.788 7
-1 -2 -5 1237 238.518 8
1 2 5 1231.68 145.712 4
1 2 6 2550.66 291.733 5
-1 -2 -6 1884.29 223.274 7
-1 -2 -6 1662.61 169.193 2
-1 -2 -6 1986.03 310.326 8
-1 -2 -7 2441.77 277.073 7
-1 -2 -7 2315.38 189.338 2
1 2 7 3060.1 348.691 5
-1 -2 -7 3100.05 404.644 8
-1 -2 -7 2607.83 290.69 6
1 2 8 192.814 96.8726 5
-1 -2 -8 172.013 102.839 7
-1 -2 -8 281.726 119.507 6
1 2 9 189.874 90.5155 5
-1 -2 -9 -13.823 76.8008 6
1 2 10 518.753 188.004 5
1 2 11 202.596 115.379 5
1 3 -12 -76.2267 147.813 7
-1 -3 12 -12.188 84.4933 5
1 3 -11 796.432 264.629 7
1 3 -10 324.972 162.95 7
1 3 -9 5003.08 417.486 4
1 3 -9 5434.09 594.574 7
1 3 -8 13793.4 665.294 4
1 3 -8 16671.3 1005.54 7
1 3 -7 3195.94 410.063 7
1 3 -7 2519.08 282.533 4
1 3 -6 1.68149 38.5148 4
1 3 -6 62.8432 58.4543 7
1 3 -5 7531.81 463.703 4
-1 -3 4 3080.24 282.882 1
1 3 -4 2515.81 262.937 4
-1 -3 3 5164.59 174.669 8
1 3 -3 8574.74 490.712 4
1 3 -2 17823.5 721.453 4
1 3 -1 59827.4 1192.9 7
1 3 -1 54501.3 1272.08 4
1 3 0 50196.5 1220.82 4
1 3 0 51850.6 919.281 7
-1 -3 0 47789.2 660.429 5
-1 -3 0 46885.9 1006.35 8
-1 -3 0 48426.9 983.673 3
-1 -3 -1 45441.4 990.123 3
1 3 1 48489.7 1171.38 4
1 3 2 1487.03 207.391 4
1 3 2 1548.27 152.89 5
-1 -3 -2 1406.61 122.413 7
-1 -3 -2 1338.12 185.634 3
-1 -3 -3 451.843 114.754 3
1 3 3 419.765 87.4646 5
1 3 3 482.201 120.156 4
1 3 4 307.518 95.3601 4
-1 -3 -4 220.612 50.9937 7
1 3 4 268.025 77.8857 5
-1 -3 -5 86.8377 95.8145 8
1 3 5 88.0343 43.7963 4
-1 -3 -5 63.4936 33.6128 7
-1 -3 -6 6078.09 577.418 8
1 3 6 4898.99 377.719 5
-1 -3 -6 4116.58 275.174 7
1 3 6 5419.58 376.37 4
-1 -3 -7 1161.74 160.505 7
-1 -3 -7 1322.96 184.527 2
1 3 7 1695.14 239.447 5
-1 -3 -7 1504.24 302.961 8
-1 -3 -8 4050.68 529.517 8
1 3 8 2799.18 334.72 5
1 3 9 -46.5616 62.8406 5
-1 -3 -9 -160.905 107.455 6
1 3 10 630.331 175.714 5
1 3 11 589.365 182.523 5
1 4 -12 47.5477 112.379 7
1 4 -11 1274.43 330.006 7
1 4 -10 -83.7218 127.396 7
1 4 -9 2579.72 433.725 7
1 4 -9 2681.34 354.211 4
1 4 -8 255.697 104.417 4
1 4 -8 129.327 76.8518 7
1 4 -7 394.36 142.302 7
1 4 -7 340.591 125.424 4
1 4 -6 2343.92 356.397 7
1 4 -6 2138.07 289.22 4
1 4 -5 2259.94 298.926 4
-1 -4 5 2263.02 275.877 1
-1 -4 4 109054 1707.69 1
1 4 -4 115512 2127.42 4
1 4 -3 281034 3358.35 4
1 4 -2 -24.445 77.7161 4
1 4 -1 35025.6 1014.72 7
1 4 -1 31725.5 1146.25 4
1 4 0 23340.4 692.921 7
1 4 0 22506 937.186 4
-1 -4 0 22716.8 756.425 3
-1 -4 -1 1525.99 202.209 3
1 4 1 1444.19 235.032 4
-1 -4 -2 2316.54 266.835 3
1 4 2 2406.3 304.677 4
-1 -4 -3 23393.8 909.268 3
1 4 3 24245.4 963.622 4
1 4 3 26429.2 760.618 5
-1 -4 -4 7365.27 547.554 3
1 4 4 7818.7 549.851 4
-1 -4 -4 4164.01 187.997 7
-1 -4 -5 12905.5 758.273 3
1 4 5 14304.1 745.63 4
-1 -4 -5 14766.2 918.179 8
1 4 6 4594.46 403.981 4
-1 -4 -6 4558.12 485.388 3
-1 -4 -6 5356.19 586.322 8
1 4 6 4235.39 359.831 5
1 4 7 428.342 119.796 5
-1 -4 -7 619.306 216.476 8
-1 -4 -8 401.916 185.878 8
1 4 8 173.566 102.806 5
1 4 9 374.675 118.995 5
-1 -4 -9 532.478 225.917 8
1 4 10 479.045 172.394 5
1 4 11 513.964 167.069 5
1 5 -11 831.304 313.991 7
1 5 -10 2144.44 433.294 7
1 5 -9 993.974 289.312 7
1 5 -9 622.398 185.692 4
1 5 -8 148.403 100.461 7
1 5 -8 -15.353 38.2737 4
1 5 -7 -32.9472 57.0298 7
1 5 -7 -64.8945 60.877 4
1 5 -6 4257.62 472.134 4
1 5 -6 3782.12 472.707 7
-1 -5 5 3536.51 357.092 1
1 5 -5 3644.7 435.991 7
1 5 -5 3731.72 437.717 4
1 5 -4 399.16 144.3 4
1 5 -4 559.995 169.107 7
-1 -5 4 400.222 107.579 1
1 5 -3 163.335 107.062 4
1 5 -3 102.387 63.5924 7
1 5 -2 430.766 146.589 4
1 5 -1 30489.9 1238.03 4
-1 -5 0 423.299 134.741 3
1 5 0 535.702 178.007 4
1 5 0 343.634 95.1559 7
-1 -5 -1 22046.6 813.347 3
1 5 1 24445.3 1116.72 4
1 5 2 31183.3 1237.1 4
-1 -5 -2 28224 977.137 3
-1 -5 -2 31653.2 1194.98 8
-1 -5 -3 4215.68 410.578 3
-1 -5 -3 4328.2 473.208 8
1 5 3 4267.04 459.829 4
-1 -5 -4 14688.5 814.409 3
1 5 4 15025.6 860.787 4
-1 -5 -4 15501.9 954.463 8
1 5 5 2431.22 274.386 5
-1 -5 -5 2727.65 416.263 8
1 5 5 2267.53 332.926 4
-1 -5 -5 2662.93 370.465 3
1 5 6 3422.49 337.849 5
-1 -5 -6 4767.64 571.808 8
1 5 6 4044.36 435.925 4
-1 -5 -6 3912.02 475.976 3
-1 -5 -7 70.2569 124.665 8
-1 -5 -7 87.4776 81.0784 3
1 5 7 108.75 65.4829 4
1 5 7 64.7749 38.4004 5
-1 -5 -8 1213.14 332.711 8
1 5 8 767.66 177.817 5
-1 -5 -8 897.394 247.181 3
-1 -5 -9 587.858 193.795 3
-1 -5 -9 707.867 250.251 8
1 5 9 433.012 132.622 5
-1 -5 -10 104.329 108.039 3
-1 -5 -10 125.609 88.9609 8
1 5 10 77.7374 99.1282 5
1 6 -11 30.926 81.386 7
1 6 -10 440.363 218.456 7
1 6 -9 97.6333 133.6 7
1 6 -9 -21.3131 53.7371 4
1 6 -8 140.379 102.957 7
1 6 -8 226.721 125.945 4
1 6 -7 183.315 102.031 4
1 6 -7 105.573 94.412 7
1 6 -6 17984.9 1108.54 7
1 6 -6 19410.3 1128.55 4
-1 -6 5 54764.5 1490.13 1
1 6 -5 55500.7 1863.14 7
1 6 -5 57512.9 1926.11 4
1 6 -4 6858.7 653.529 4
-1 -6 4 6036.58 464.748 1
1 6 -4 7591.89 670.568 7
1 6 -3 1176.65 255.099 7
1 6 -3 1095.05 259.59 4
1 6 -2 142.731 83.2829 7
1 6 -2 34.7819 68.0079 4
1 6 -1 1380.26 294.174 4
1 6 0 360.909 151.431 4
-1 -6 0 189.949 84.2583 3
-1 -6 -1 32.4752 77.9216 3
1 6 1 235.635 133.275 4
-1 -6 -2 18732.4 843.262 3
-1 -6 -2 20704.4 1044.65 8
1 6 2 21733.3 1162.2 4
-1 -6 -3 909.971 198.469 3
-1 -6 -3 1118.97 257.188 8
1 6 3 1434.08 289.321 4
1 6 4 24141.5 1214.52 4
-1 -6 -4 22542.9 1066.45 3
-1 -6 -4 22638 1218.83 8
-1 -6 -5 91.3292 72.1595 3
1 6 5 104.03 106.813 4
1 6 5 129.711 70.396 5
-1 -6 -5 91.6578 125.788 8
1 6 6 93.4728 47.0904 5
-1 -6 -6 1.53936 96.4822 3
1 6 6 38.5357 64.4422 4
-1 -6 -6 102.522 66.706 8
-1 -6 -7 2477.3 463.988 8
1 6 7 2043.48 326.375 4
1 6 7 1810.64 269.759 5
-1 -6 -7 1695.74 347.244 3
1 6 8 47.0672 40.8214 5
-1 -6 -8 253.924 153.684 3
1 6 9 738.991 190.326 5
-1 -6 -9 1017.98 221.813 3
-1 -6 -9 1173.95 352.825 8
1 7 -10 -128.18 148.703 7
1 7 -9 -75.3925 106.122 4
1 7 -9 222.164 187.173 7
1 7 -8 180.565 144.501 4
1 7 -8 126.964 141.381 7
1 7 -7 345.852 205.414 7
1 7 -7 304.797 151.474 4
1 7 -6 559.912 196.952 4
1 7 -6 402.728 200.729 7
-1 -7 5 200.576 129.429 1
1 7 -5 404.208 181.812 7
1 7 -5 97.0151 73.3824 4
-1 -7 4 1343.25 238.296 1
1 7 -4 1580.15 347.069 4
1 7 -4 1971.99 370.905 7
1 7 -3 183.236 129.499 4
1 7 -3 173.612 117.422 7
1 7 -2 -50.9797 91.1853 7
1 7 -2 -28.1583 103.56 4
1 7 -1 10779.7 921.863 4
1 7 -1 11157.4 682.583 7
1 7 0 14428.8 1049.44 4
-1 -7 -1 344.6 128.544 8
-1 -7 -1 672.484 172.192 3
1 7 1 400.701 172.583 4
-1 -7 -2 3013.19 353.594 3
1 7 2 3999.23 529.042 4
-1 -7 -2 3777.09 476.613 8
1 7 3 805.616 253.759 4
-1 -7 -3 735.885 174.407 3
-1 -7 -3 1034.52 264.472 8
-1 -7 -4 2137.98 391.624 8
-1 -7 -4 1837.92 310.057 3
1 7 4 2787.63 451.388 4
-1 -7 -5 322.581 145.757 8
1 7 5 357.397 173.89 4
-1 -7 -5 137.116 85.4513 3
-1 -7 -6 319.386 166.055 8
-1 -7 -6 361.896 167.834 3
1 7 6 449.154 172.332 4
-1 -7 -7 1425.8 375.215 8
1 7 7 1253.74 281.015 4
-1 -7 -7 1164.42 307.1 3
-1 -7 -8 19.9969 97.611 8
-1 -7 -8 106.654 128.25 3
1 8 -8 419.694 191.208 4
1 8 -8 358.21 202.526 7
1 8 -7 4657.61 629.271 4
1 8 -7 4696.61 674.901 7
1 8 -6 6058.02 735.74 7
1 8 -6 5832.12 708.396 4
1 8 -5 2.46309 99.652 7
1 8 -5 -96.5979 112.839 4
1 8 -4 -124.603 91.4029 7
1 8 -4 51.9244 74.7849 4
1 8 -3 372.595 163.694 4
1 8 -3 476.322 180.551 7
1 8 -2 110.215 74.416 4
1 8 -2 95.4676 70.9089 7
-1 -8 2 57.5389 38.3716 8
-1 -8 1 111.717 98.6948 8
1 8 -1 -130.246 164.432 4
1 8 -1 151.318 100.85 7
1 8 0 417.062 195.928 4
1 8 0 477.042 135.301 7
-1 -8 0 304.862 137.333 8
-1 -8 -1 146.74 108.685 3
-1 -8 -1 -63.8333 108.857 8
1 8 1 -33.4454 63.7872 4
-1 -8 -2 782.428 183.274 3
1 8 2 924.73 297.758 4
-1 -8 -2 848.963 234.958 8
-1 -8 -3 603.19 173.228 3
-1 -8 -3 838.779 245.837 8
1 8 3 855.135 285.142 4
1 8 4 208.17 143.764 4
-1 -8 -4 244.45 125.805 3
-1 -8 -4 176.386 110.701 8
1 8 5 872.441 275.158 4
-1 -8 -5 440.402 156.114 3
-1 -8 -5 447.147 202.519 8
-1 -8 -6 144.948 115.747 3
1 8 6 448.354 205.924 4
-1 -8 -6 526.844 238.895 8
-1 -8 -7 1640.44 407.462 8
-1 -8 -7 1201.44 317.403 3
1 8 7 1628.87 356.745 4
1 9 -7 235.305 177.553 7
1 9 -7 547.351 231.621 4
1 9 -6 594.998 228.846 7
1 9 -6 789.836 306.946 4
1 9 -5 -157.992 119.775 7
1 9 -5 -42.2248 100.482 4
1 9 -4 145.386 131.43 4
1 9 -4 -91.9046 103.714 7
1 9 -3 497.52 185.506 7
1 9 -3 489.752 241.906 4
1 9 -2 3760.48 456.54 7
1 9 -2 4210.78 666.22 4
-1 -9 1 551.811 174.357 8
1 9 -1 445.975 142.835 7
1 9 -1 480.718 252.514 4
-1 -9 0 56.5325 54.7404 8
1 9 0 318.646 201.857 4
1 9 1 116.826 152.471 4
-1 -9 -1 33.0282 45.161 8
1 9 2 -185.681 170.559 4
-1 -9 -2 59.239 81.8766 8
-1 -9 -3 110.898 134.093 8
1 9 3 -146.21 157.424 4
-1 -9 -4 19.7687 51.0715 8
1 9 4 -55.5729 168.112 4
1 9 5 101.813 122.593 4
-1 -9 -5 515.285 222.706 8
1 10 -4 257.366 139.731 7
1 10 -4 -200.529 222.029 4
1 10 -3 -109.887 161.448 4
1 10 -3 -10.9987 68.8219 7
1 10 -2 -78.8467 154.087 4
1 10 -1 72.1092 104.978 4
-1 -10 0 73.7227 66.8904 8
1 10 0 14.8933 103.668 4
-1 -10 -1 102.383 65.5979 8
1 10 1 125.536 191.592 4
-2 10 3 -58.3215 72.2019 4
-2 10 2 20.3472 83.4106 4
-2 10 1 -147.975 135.121 4
-2 10 0 1446.81 392.715 4
-2 10 -1 360.215 225.434 4
-2 10 -2 112.673 112.812 4
-2 10 -2 29.5273 55.3117 7
-2 10 -3 200.857 144.401 7
-2 10 -3 571.849 262.143 4
-2 9 6 118.063 145.621 4
2 -9 -6 -18.0362 100.943 2
-2 9 5 81.8959 104.615 4
-2 9 4 190.723 83.6684 4
-2 9 3 656.916 236.368 4
-2 9 2 484.195 227.435 4
-2 9 1 1099.5 315.286 4
-2 9 0 603.466 246.908 4
-2 9 -1 523.165 210.531 4
-2 9 -1 362.978 166.469 7
-2 9 -2 187.243 128.453 7
-2 9 -2 13.3931 110.793 4
-2 9 -3 31.3244 65.7286 7
-2 9 -3 324.893 201.413 4
-2 9 -4 69.0421 98.7017 4
-2 9 -4 -179.298 159.74 7
-2 9 -5 985.021 304.255 4
-2 9 -5 640.037 261.916 7
-2 9 -6 147.71 136.825 7
-2 9 -6 171.469 116.158 4
2 -8 -8 628.38 207.935 2
2 -8 -7 369.663 166.4 2
-2 8 6 649.133 212.183 4
2 -8 -6 545.562 188.645 2
-2 8 5 98.1305 92.6138 4
-2 8 4 1610.11 334.772 4
-2 8 3 10.0975 71.6669 4
-2 8 2 11161.8 920.82 4
-2 8 1 858.316 266.058 4
-2 8 1 930.422 213.843 7
-2 8 0 937.289 269.665 4
-2 8 0 835.076 221.534 7
-2 8 -1 454.981 204.728 4
-2 8 -1 420.942 180.26 7
-2 8 -2 155.863 101.629 4
-2 8 -2 115.627 118.079 7
-2 8 -3 33.8592 74.5564 7
-2 8 -3 232.497 135.773 4
-2 8 -4 73.2282 89.0392 7
-2 8 -4 40.1633 85.6871 4
-2 8 -5 163.338 128.385 4
-2 8 -5 179.805 141.967 7
-2 8 -6 288.94 159.449 4
-2 8 -6 278.389 204.872 7
-2 8 -7 339.865 228.631 7
2 -7 -9 152.752 89.2375 2
2 -7 -8 236.456 125.043 2
2 -7 -7 71.7825 80.9011 2
2 -7 -6 420.965 168.302 2
-2 7 5 581.025 193.001 4
2 -7 -5 270.167 109.398 3
-2 7 4 11016.5 794.824 4
2 -7 -4 9836.38 597.402 3
-2 7 3 1261.79 299.266 4
2 -7 -3 1046.87 175.174 3
-2 7 2 6417.58 479.123 7
-2 7 2 7245.1 689.42 4
-2 7 1 2734.68 418.876 4
-2 7 0 253.307 118.345 7
-2 7 0 261.288 146.672 4
-2 7 -1 4500.13 510.52 7
-2 7 -1 4930.35 601.338 4
-2 7 -2 97.7315 94.0339 4
-2 7 -2 -92.599 100.026 7
-2 7 -3 8394.88 746.455 4
-2 7 -3 7895.32 752.027 7
-2 7 -4 231.876 131.85 4
-2 7 -4 100.346 100.759 7
-2 7 -5 188.518 109.815 4
-2 7 -5 373.17 193.035 7
-2 7 -6 214.305 154.579 4
-2 7 -6 445.916 205.196 7
-2 7 -7 590.604 192.669 4
-2 7 -7 411.134 196.679 7
-2 7 -8 641.181 260.203 7
-2 7 -9 108.625 148.735 7
-2 6 10 651.472 199.482 5
2 -6 -10 722.156 284.941 8
2 -6 -9 54.1048 67.7659 2
-2 6 9 95.9725 93.238 5
-2 6 8 5438.61 528.409 5
2 -6 -8 4493.14 491.336 2
-2 6 7 291.758 125.648 5
2 -6 -7 304.785 123.474 2
2 -6 -6 3914.88 443.408 2
-2 6 5 816.431 202.714 4
-2 6 4 2036.43 304.801 4
2 -6 -3 10912.7 534.705 3
-2 6 3 11045.3 486.128 7
-2 6 2 529.424 172.938 4
-2 6 2 259.434 94.1425 7
2 -6 -2 295.323 77.6849 3
2 -6 -1 1738.48 150.372 3
-2 6 1 2676 381.986 4
-2 6 0 -46.2356 69.3692 4
-2 6 -1 5612.36 530.572 7
-2 6 -1 5891.03 580.263 4
-2 6 -2 77.7367 90.5266 4
-2 6 -2 65.4114 85.0056 7
-2 6 -3 10066.5 804.577 7
-2 6 -3 11003.6 763.285 4
-2 6 -4 74.4785 103.488 4
-2 6 -4 101.99 112.687 7
-2 6 -5 157.144 150.427 7
-2 6 -5 31.1351 85.8652 4
-2 6 -6 926.899 222.015 4
-2 6 -6 743.471 263.477 7
-2 6 -7 1928.24 313.091 4
-2 6 -7 1910.64 431.019 7
-2 6 -8 397.13 178.264 7
-2 6 -9 199.69 179.451 7
-2 5 11 -33.5091 112.464 5
2 -5 -11 -57.0849 152.125 8
-2 5 10 581.922 180.935 5
2 -5 -10 563.178 164.929 2
2 -5 -10 966.013 305.773 8
2 -5 -9 129.608 73.1229 2
-2 5 9 315.324 128.745 5
2 -5 -8 2104.66 302.259 2
-2 5 8 2112.34 321.812 5
-2 5 7 393.585 140.548 5
2 -5 -7 259.42 104.721 2
2 -5 -6 15133.7 823.124 2
-2 5 6 17977.5 913.903 5
2 -5 -5 5520.94 477.57 2
-2 5 4 -8.58347 67.1603 4
-2 5 4 -6.66704 14.6309 7
-2 5 3 8211.54 402.539 7
-2 5 3 8554.53 597.935 4
-2 5 2 3393.43 381.946 4
-2 5 2 3258.1 305.69 7
2 -5 -1 2557.48 172.284 3
-2 5 1 3521.19 402.127 4
-2 5 1 3564.69 347.674 7
-2 5 0 15867.8 837.032 4
-2 5 -1 15486.7 856.865 4
-2 5 -2 25720.7 1057.26 4
-2 5 -2 26307.6 1168.2 7
-2 5 -3 5445.26 480.084 4
-2 5 -3 5234.62 542.845 7
-2 5 -4 2535.04 327.36 4
-2 5 -4 2764.91 410.663 7
-2 5 -5 289.996 158.356 7
-2 5 -5 185.699 97.9598 4
-2 5 -6 9309.44 831.325 7
-2 5 -6 9845.23 636.004 4
-2 5 -7 844.236 184.578 4
-2 5 -7 535.688 208.134 7
-2 5 -8 431.104 206.912 7
-2 5 -9 220.209 197.349 7
-2 5 -10 -51.6512 121.064 7
2 -4 -11 243.256 121.006 8
-2 4 11 424.283 164.621 5
-2 4 10 2627.15 377.148 5
2 -4 -10 2553.26 336.311 2
-2 4 9 1758.26 293.4 5
2 -4 -9 1861.57 278.597 2
2 -4 -8 6319.41 498.36 2
-2 4 8 6583.8 556.416 5
2 -4 -7 8010.5 545.103 2
-2 4 7 8011.21 582.59 5
-2 4 6 36.44 66.5295 5
2 -4 -6 48.5829 46.6694 2
-2 4 5 7164.89 533.4 5
2 -4 -5 5620.56 450.141 2
2 -4 -4 4802.45 400.832 2
-2 4 4 4113.55 224.361 7
-2 4 3 1044.56 193.189 4
-2 4 3 989.247 137.402 7
-2 4 2 1307.63 176.903 7
-2 4 2 1201.66 199.436 4
-2 4 1 17268.6 766.63 4
-2 4 1 19131.4 745.049 7
-2 4 0 5953.48 457.928 7
-2 4 0 5443.21 435.956 4
-2 4 -1 492.471 132.262 4
-2 4 -2 16447.3 753.481 4
-2 4 -3 896.437 168.561 4
-2 4 -4 2311.45 271.18 4
-2 4 -5 17734.6 744.169 4
-2 4 -5 17123.9 1036.39 7
-2 4 -6 3820.16 334.077 4
-2 4 -6 3636.32 499.332 7
-2 4 -7 -119.639 109.732 7
-2 4 -8 2144.03 428.935 7
-2 4 -9 16.6959 147.714 7
-2 4 -10 785.229 310.194 7
-2 4 -11 361.828 197.553 7
-2 3 12 132.691 84.1655 5
2 -3 -12 73.6583 90.0825 8
-2 3 11 1142.48 263.051 5
2 -3 -11 1127.52 317.244 8
-2 3 10 -49.5175 51.985 5
2 -3 -10 30.0815 65.6054 8
2 -3 -10 -39.5761 59.9447 2
-2 3 9 25.3488 61.2063 5
2 -3 -9 -90.7373 103.844 2
2 -3 -8 205.147 91.0517 2
-2 3 8 98.5546 42.7901 5
-2 3 7 8805.91 577.524 5
2 -3 -7 9342.97 558.435 2
-2 3 6 7819.13 527.72 5
2 -3 -6 7656.99 481.898 2
2 -3 -5 4917.09 376.671 2
-2 3 5 3799.49 213.829 7
2 -3 -4 10541.8 541.939 2
-2 3 4 9842.32 358.194 7
2 -3 -3 4175.71 337.513 2
2 -3 -2 51198.1 1125.38 2
-2 3 2 51726.3 1195.5 4
2 -3 -1 20.5861 16.0702 1
-2 3 1 64.5382 46.9048 7
-2 3 1 14.2847 32.143 4
-2 3 0 34276.7 918.078 4
-2 3 0 39763.4 1043.94 7
-2 3 -1 29480 850.267 4
-2 3 -2 1851.14 207.144 4
-2 3 -2 1677.03 125.929 3
-2 3 -3 15972.6 617.353 4
-2 3 -4 10079.9 476.372 4
-2 3 -5 24885.2 723.224 4
-2 3 -5 24123.3 1159.88 7
-2 3 -6 184.247 60.2599 4
-2 3 -6 7.36025 68.6625 7
-2 3 -7 1217.15 275.697 7
-2 3 -8 35.7834 59.4753 7
-2 3 -9 1507.99 362.208 7
-2 3 -10 7087.36 798.775 7
-2 3 -11 1301.15 377.89 7
-2 2 12 -64.6893 110.516 5
2 -2 -12 106.541 53.6804 8
2 -2 -11 2938.45 484.697 8
-2 2 11 2569.41 407.131 5
-2 2 10 395.804 149.527 5
2 -2 -10 765.105 240.554 8
2 -2 -10 619.257 144.251 2
-2 2 9 1287.92 247.091 5
2 -2 -9 1462.08 297.945 8
2 -2 -9 1465.03 225.366 2
-2 2 8 7830.12 576.878 5
2 -2 -8 7765.74 500.008 2
2 -2 -7 -42.0287 50.5899 2
-2 2 7 -45.0126 72.4288 5
2 -2 -6 33275.7 941.549 2
2 -2 -5 2219.27 240.136 2
2 -2 -4 1755.29 201.308 2
2 -2 -3 18841.5 631.522 2
2 -2 -2 46771.3 977.371 2
2 -2 -1 3253.33 257.341 2
2 -2 0 2177.83 203.421 2
-2 2 0 2264.14 204.425 4
2 -2 0 2437.41 137.087 3
2 -2 1 5375.56 299.436 2
-2 2 -1 5689.84 301.329 4
-2 2 -1 5915.67 222.238 3
2 -2 2 10485.9 392.158 2
-2 2 -2 11749.2 393.245 3
-2 2 -2 11043.9 396.256 4
-2 2 -3 55250.7 828.966 4
2 -2 3 52418 818.678 2
-2 2 -3 52964.2 1130.96 6
-2 2 -4 50419.4 729.84 4
2 -2 4 47183.9 687.874 2
2 -2 4 48635.5 775.989 4
-2 2 -4 48211.6 1135.64 6
-2 2 -5 2424.25 350.688 7
2 -2 5 1692.04 107.075 2
-2 2 -5 1865.13 235.729 6
-2 2 -6 418.887 147.248 7
-2 2 -6 396.187 126.74 6
-2 2 -7 831.078 166.723 6
-2 2 -7 1444.52 300.38 7
-2 2 -8 199.781 124.82 7
-2 2 -9 1724.79 356.517 7
-2 2 -10 358.299 167.672 7
-2 2 -11 4.26342 66.7257 7
-2 1 13 319.931 159.253 5
-2 1 12 427.417 181.772 5
-2 1 11 72.506 52.7298 5
2 -1 -11 -6.68098 56.4313 8
2 -1 -10 27.9611 60.7037 2
-2 1 10 -153.139 120.386 5
2 -1 -10 68.8947 89.1301 8
2 -1 -10 55.5939 63.8551 7
-2 1 9 105.754 90.4626 5
2 -1 -9 97.4635 61.725 8
2 -1 -9 -36.4226 46.8 7
2 -1 -9 -26.3946 55.0779 2
-2 1 8 3564.82 379.435 5
2 -1 -8 3142.98 313.601 7
2 -1 -8 3290.42 291.098 2
2 -1 -8 2331.65 125.745 6
2 -1 -7 2855.49 263.9 2
2 -1 -7 2524.18 254.511 7
2 -1 -6 22354.1 718.862 7
2 -1 -6 23807.1 753.062 2
2 -1 -5 152.059 60.2234 2
2 -1 -4 41298.3 895.958 2
2 -1 -3 150868 1613.31 2
-2 1 2 29477.8 616.304 1
2 -1 -2 34438.7 731.809 2
2 -1 -1 486082 2634.14 2
2 -1 0 27658.1 557.723 3
2 -1 0 28699.4 596.681 2
2 -1 1 425.78 67.1367 4
-2 1 -1 537.745 85.1749 3
2 -1 1 473.461 73.2069 2
-2 1 -2 8934.96 387.43 3
2 -1 2 8930.31 294.606 4
2 -1 2 9881.85 300.471 2
2 -1 3 52207.5 615.335 4
2 -1 3 53581.3 570.426 2
-2 1 -4 1371.14 181.656 6
-2 1 -4 1408.2 232.182 7
-2 1 -5 1020.14 159.718 6
-2 1 -5 1338.26 247.845 7
-2 1 -6 2014.18 322.868 7
-2 1 -6 1839.12 231.787 6
-2 1 -7 906.172 163.837 6
-2 1 -7 1225.91 267.056 7
-2 1 -8 29817.2 981.065 6
-2 1 -8 36265.1 1499.9 7
-2 1 -9 16127.2 751.543 6
-2 1 -9 21102.9 1203.01 7
-2 1 -10 -27.121 57.1292 7
-2 1 -11 286.531 166.826 7
-2 0 13 450.364 178.771 5
-2 0 12 631.099 213.005 5
2 0 -12 214.261 126.84 7
-2 0 11 2292.45 394.721 5
2 0 -11 1721.77 316.698 7
-2 0 10 1140.51 262.011 5
2 0 -10 1190.13 257.642 7
2 0 -10 1151.35 178.578 2
2 0 -10 1131.89 229.263 8
-2 0 9 656.057 195.474 5
2 0 -9 389.147 109.864 2
2 0 -9 248.181 108.969 8
2 0 -9 427.687 156.881 7
-2 0 8 3272.43 383.31 5
2 0 -8 3604.14 372.575 8
2 0 -8 3178.46 368.534 7
2 0 -8 2955.23 269.108 2
-2 0 7 -38.7991 67.7133 5
2 0 -7 59.3349 39.4158 2
2 0 -7 82.107 65.1192 7
2 0 -6 15612.5 685.497 7
2 0 -6 13957.2 541.037 2
2 0 -5 637.685 125.625 2
2 0 -5 634.965 128.524 7
2 0 -4 58.6131 37.7707 2
2 0 -4 49.4745 37.3857 7
-2 0 3 83644.7 1215.76 1
2 0 -3 79888.1 763.602 6
2 0 -3 83486.7 1100.7 2
-2 0 3 85133.3 717.298 6
2 0 -2 84698.2 1047.33 2
2 0 -2 85233.2 912.679 6
2 0 -1 296037 1839.88 2
2 0 -1 288610 2006.76 5
-2 0 0 19842.7 533.01 3
2 0 0 22491.5 494.403 2
2 0 1 69491.8 806.909 2
-2 0 -1 66374.3 1048.73 3
-2 0 -1 68475 759.946 2
2 0 2 108633 933.736 2
-2 0 -2 109256 1498.95 3
-2 0 -2 108187 878.671 2
-2 0 -3 10841.8 536.429 7
-2 0 -3 9862.22 484.166 3
-2 0 -3 8724.29 220.304 2
-2 0 -3 12010.3 499.662 6
-2 0 -4 8769.01 538.706 7
-2 0 -4 8198.59 437.489 6
-2 0 -5 707.961 143.016 6
-2 0 -5 900.067 189.323 7
-2 0 -6 1551.63 219.783 6
-2 0 -6 1805.52 285.689 7
-2 0 -7 988.778 190.995 6
-2 0 -7 834.761 203.526 7
-2 0 -8 4185.74 487.568 7
-2 0 -8 3439.04 335.005 6
-2 0 -9 45.9811 75.8598 6
-2 0 -9 33.3107 81.6418 7
-2 0 -10 73.2364 82.5795 7
-2 0 -11 150.857 114.407 7
2 0 11 -30.4052 132.895 5
-2 -1 13 20.0189 68.5376 5
2 1 -13 -32.6783 120.649 7
-2 -1 12 -6.16466 105.813 5
2 1 -12 192.361 120.871 7
-2 -1 11 197.098 123.435 5
2 1 -11 -77.0722 73.7568 7
2 1 -10 1417.94 292.39 7
-2 -1 10 1732.11 316.475 5
2 1 -9 150.933 68.4118 2
-2 -1 9 40.568 92.7666 5
2 1 -9 133.061 108.856 7
-2 -1 8 2949.44 356.301 5
2 1 -8 2594.98 358.427 7
2 1 -8 2455.25 249.532 2
2 1 -8 2577.86 254.36 8
2 1 -7 1702.77 197.279 2
2 1 -7 2325.51 323.418 7
2 1 -7 1871.13 201.399 8
-2 -1 7 1855.17 262.913 5
2 1 -6 6044.9 484.595 7
2 1 -6 5041.72 327.45 2
-2 -1 6 5386.67 417.009 5
-2 -1 5 17502.6 683.059 5
2 1 -5 17514.1 763.817 7
2 1 -5 15472.8 559.812 2
-2 -1 4 2121.47 113.633 6
-2 -1 4 2942.43 272.47 1
2 1 -4 2444.92 211.557 2
-2 -1 4 2629.53 232.122 5
-2 -1 3 89576.1 1193.26 5
2 1 -3 90007.9 1247.13 2
-2 -1 3 90592.9 1292.69 1
2 1 -2 156494 1316.38 5
-2 -1 2 159883 1313.51 5
2 1 -1 12802.4 289.604 5
2 1 -1 15916.2 483.081 2
2 1 0 5839.77 294.377 2
-2 -1 0 5782.52 338.974 3
-2 -1 -1 17055.7 584.803 3
2 1 1 17959 518.628 4
-2 -1 -2 67454.2 1264.03 3
2 1 2 65738.8 935.898 4
-2 -1 -3 1202.53 185.148 3
2 1 3 1212.41 119.314 4
-2 -1 -3 1512.7 185.452 6
-2 -1 -4 23927.4 877.51 3
-2 -1 -4 22673.9 788.507 7
2 1 4 23149 474.929 4
-2 -1 -4 20587.7 436.911 2
-2 -1 -4 26250.7 816.327 6
-2 -1 -5 19.8383 16.778 2
-2 -1 -5 -0.57864 52.5478 7
-2 -1 -6 14246.9 696.72 6
-2 -1 -6 13880.1 761.67 7
-2 -1 -7 77014.1 1881.17 7
-2 -1 -7 76583.9 1684.58 6
-2 -1 -8 7180.25 609.881 7
-2 -1 -8 6930.29 522.775 6
-2 -1 -9 972.231 232.705 7
2 1 9 1201.47 278.771 5
-2 -1 -9 1086.36 230.832 6
2 1 10 -68.9782 80.3661 5
2 1 11 165.713 85.1193 5
2 2 -12 638.768 235.73 7
-2 -2 12 752.752 238.448 5
-2 -2 11 -171.902 131.907 5
2 2 -11 -43.3248 57.9795 7
2 2 -10 2883.65 447.596 7
-2 -2 10 3232.58 453.599 5
2 2 -10 2423.91 301.544 4
2 2 -9 160.428 110.634 7
-2 -2 9 75.5009 84.0811 5
2 2 -9 124.251 74.2611 4
-2 -2 8 15041 878.207 5
2 2 -8 14142.8 904.209 7
2 2 -7 3198.73 394.633 7
2 2 -7 2291.24 250.904 2
-2 -2 6 344.46 50.6432 6
2 2 -6 756.134 140.576 2
2 2 -6 910.859 195.774 7
-2 -2 5 5155.51 418.401 1
2 2 -5 4293.11 326.398 2
2 2 -4 3676.84 292.817 2
-2 -2 4 3693.4 304.179 1
2 2 -3 3014.18 262.436 2
2 2 -2 228.252 68.3666 2
2 2 -2 130.461 59.2495 4
2 2 -2 199.866 44.3478 8
2 2 -1 72325.4 1304.84 4
-2 -2 0 43672.9 1003.49 3
2 2 0 42524.2 992.438 4
2 2 1 22705.9 377.403 5
-2 -2 -1 24607.3 765.825 3
2 2 1 23547.1 730.455 4
2 2 2 38709.8 953.693 4
-2 -2 -2 39445.2 1060.34 3
-2 -2 -3 65322 1472.63 3
2 2 3 59448.7 1112.25 4
2 2 4 22589.6 666.118 4
-2 -2 -4 21122.9 727.996 7
2 2 5 1173.04 143.129 4
-2 -2 -5 1065.11 211.576 3
-2 -2 -5 785.305 153.876 7
-2 -2 -6 2863.96 312.246 7
2 2 6 3270.55 336.806 5
-2 -2 -6 3446.82 346.595 6
2 2 7 9.47846 68.2381 5
-2 -2 -7 98.6199 86.425 7
-2 -2 -7 243.079 127.146 6
2 2 8 801.756 195.281 5
-2 -2 -8 606.119 165.131 7
-2 -2 -9 -108.015 109.476 6
2 2 9 131.808 102.186 5
2 2 10 64.9572 79.5142 5
2 2 11 1470.39 342.886 5
2 3 -12 86.7152 73.8031 7
-2 -3 12 185.864 147.612 5
2 3 -11 128.985 98.0115 7
-2 -3 11 -89.3305 114.746 5
-2 -3 10 932.458 254.093 5
2 3 -10 681.172 171.643 4
2 3 -10 752.267 254.742 7
2 3 -9 2308.18 316.357 4
2 3 -9 2709.91 438.233 7
2 3 -8 301.681 151.989 7
2 3 -8 233.442 108.227 4
2 3 -7 1251.97 272.593 7
2 3 -7 1161.93 208.926 4
2 3 -6 83.469 59.3652 4
-2 -3 6 -4.91248 83.4658 1
2 3 -6 35.6463 55.197 7
-2 -3 5 17135 748.873 1
2 3 -5 16182.9 737.645 4
-2 -3 4 103.238 38.0267 1
2 3 -4 -0.84855 44.1192 4
2 3 -3 9161.86 538.56 4
2 3 -2 7067.97 474.898 4
2 3 -1 744.774 154.349 4
2 3 -1 1172.81 181.07 7
-2 -3 0 23506 770.906 8
2 3 0 23070.9 858.477 4
-2 -3 0 23403.2 808.804 3
-2 -3 -1 6227.45 421.422 3
2 3 1 6871.27 477.429 4
2 3 2 3967.46 368.227 4
-2 -3 -2 3792.13 338.869 3
2 3 2 3846.81 211.232 5
2 3 3 1310.56 146.247 5
2 3 3 1321.14 199.227 4
-2 -3 -3 1274.44 216.36 3
2 3 4 12862.7 622.299 4
2 3 4 11305.4 485.383 5
-2 -3 -4 12968.6 740.478 3
-2 -3 -5 50017.1 1539.39 3
2 3 5 53321.3 1254.81 4
-2 -3 -6 29017.4 1239.92 3
2 3 6 29158.4 874.196 4
2 3 6 26409.6 920.576 5
-2 -3 -6 24716.4 870.32 7
2 3 7 351.967 101.888 5
-2 -3 -7 325.398 146.283 3
-2 -3 -7 459.077 125.191 7
-2 -3 -7 482.71 154.493 6
-2 -3 -8 559.55 186.553 3
2 3 8 643.079 166.352 5
-2 -3 -8 787.338 209.955 6
2 3 9 695.021 186.954 5
-2 -3 -9 719.28 217.487 3
-2 -3 -9 938.933 228.187 6
-2 -3 -10 414.828 179.214 3
2 3 10 351.935 127.484 5
2 4 -12 116.018 90.2232 7
-2 -4 12 271.121 163.885 5
-2 -4 11 184.838 142.934 5
2 4 -11 -199.652 159.443 7
2 4 -10 1144.41 310.676 7
2 4 -10 1057.64 226.618 4
2 4 -9 2818.92 364.657 4
2 4 -9 3480.18 518.339 7
2 4 -8 -98.3334 129.115 7
2 4 -8 3.04793 47.6295 4
2 4 -7 448.163 172.93 7
2 4 -7 165.677 94.2416 4
-2 -4 6 698.424 165.259 1
2 4 -6 1078.51 252.854 7
2 4 -6 547.513 149.864 4
2 4 -5 2448 307.706 4
-2 -4 5 2911.05 321.791 1
2 4 -4 3293.9 354.836 4
2 4 -3 26105.8 1016.4 4
2 4 -2 636.18 152.885 4
-2 -4 1 125.416 57.0454 8
2 4 -1 113.615 54.5801 7
2 4 -1 104.51 98.3911 4
-2 -4 0 3767.24 176.675 5
-2 -4 0 4431.48 374.147 8
2 4 0 5143.12 471.387 4
-2 -4 0 4659.39 397.819 3
2 4 1 15426.9 830.323 4
-2 -4 -1 13749.6 664.439 3
-2 -4 -2 -39.4648 77.2147 8
2 4 2 33.0454 24.3551 5
-2 -4 -2 9.21303 38.6377 3
2 4 2 -67.4334 91.343 4
2 4 3 1152.21 220.029 4
2 4 3 1167.24 145.055 5
-2 -4 -3 992.069 216.107 8
-2 -4 -3 1033.16 203.466 3
2 4 4 105.068 38.9215 5
-2 -4 -4 116.053 102.975 3
-2 -4 -4 152.817 114.976 8
2 4 4 132.733 95.1843 4
-2 -4 -5 5.76424 69.1183 3
2 4 5 -8.68378 48.8787 4
-2 -4 -5 -35.0381 45.1141 7
-2 -4 -5 -124.446 105.664 8
-2 -4 -6 4112.65 525.398 8
-2 -4 -6 3683.51 457.766 3
2 4 6 2817.81 287.178 5
2 4 6 3880.46 387.916 4
2 4 7 469.686 122.088 5
2 4 7 642.786 150.003 4
-2 -4 -7 561.961 194.097 3
2 4 8 47.5749 64.7235 5
-2 -4 -8 -42.6813 76.079 3
2 4 9 914.491 210.278 5
-2 -4 -9 1072.15 295.832 3
-2 -4 -9 963.825 266.56 6
-2 -4 -10 4160.52 693.47 3
2 4 10 4184.35 465.4 5
2 5 -11 150.016 165.92 7
2 5 -10 1055.69 326.545 7
2 5 -10 705.048 212.76 4
2 5 -9 26.9668 79.639 4
2 5 -9 -2.21057 86.4583 7
2 5 -8 138.654 95.6302 4
2 5 -8 4.67211 61.2699 7
2 5 -7 509.213 181.204 4
2 5 -7 765.682 235.438 7
-2 -5 6 -110.352 94.1848 1
2 5 -6 -77.9716 79.9692 4
2 5 -6 -206.398 134.301 7
-2 -5 5 5478.77 471.844 1
2 5 -5 6733.38 632.166 7
2 5 -5 5011.24 507.949 4
2 5 -4 3008.92 401.062 4
2 5 -4 3945.98 458.343 7
2 5 -3 954.367 211.881 7
2 5 -3 899.309 214.353 4
2 5 -2 175.474 112.019 4
-2 -5 2 51.6195 42.4012 8
-2 -5 1 7112.88 482.844 8
2 5 -1 7885.57 659.3 4
-2 -5 0 615.746 170.668 3
2 5 0 684.366 204.732 4
-2 -5 -1 2142.68 278.678 3
-2 -5 -1 2390.34 314.961 8
2 5 1 2498.53 369.553 4
-2 -5 -2 12270 697.358 3
2 5 2 12979 819.096 4
-2 -5 -2 13835.1 809.329 8
2 5 3 147.021 68.019 4
-2 -5 -3 3.19707 47.0029 3
-2 -5 -3 75.7918 79.1289 8
2 5 4 24314.3 1121.25 4
-2 -5 -4 24139.7 1208.08 8
-2 -5 -4 22601 1060.86 3
-2 -5 -5 742.511 203.308 3
-2 -5 -5 785.974 237.449 8
2 5 5 899.367 232.512 4
-2 -5 -6 3952.6 509.06 3
2 5 6 3098.34 304.84 5
2 5 6 4549.84 487.852 4
-2 -5 -6 4650.81 587.06 8
2 5 7 102.642 60.834 5
-2 -5 -7 261.869 126.553 3
-2 -5 -7 176.519 131.848 8
2 5 7 203.272 111.475 4
2 5 8 544.17 150.787 5
-2 -5 -8 770.25 257.001 3
2 5 9 75.8504 47.8856 5
-2 -5 -9 586.328 238.585 3
2 6 -11 356.484 174.857 7
2 6 -10 56.189 85.8062 7
2 6 -10 -21.065 84.1635 4
2 6 -9 242.193 146.531 7
2 6 -9 158.797 91.5402 4
2 6 -8 31.4618 83.6934 7
2 6 -8 39.6753 75.8985 4
-2 -6 7 250.011 78.1051 1
2 6 -7 336.745 160.975 4
2 6 -7 103.621 108.779 7
-2 -6 6 2236.02 348.293 1
2 6 -6 2120.38 372.899 4
2 6 -6 2339.45 406.728 7
2 6 -5 4287.93 525.332 4
-2 -6 5 4035.62 427.635 1
2 6 -4 2237.09 360.763 7
2 6 -4 1602.44 324.409 4
2 6 -3 426.791 145.965 7
2 6 -3 412.271 178.371 4
-2 -6 3 193.896 68.0774 8
2 6 -2 799.838 228.559 4
2 6 -2 629.347 163.329 7
2 6 -1 3172.78 448.386 4
2 6 -1 3038.92 336.563 7
-2 -6 0 121.742 92.9903 3
2 6 0 116.345 67.6635 4
-2 -6 0 94.0839 62.7898 8
-2 -6 -1 1746.67 276.883 3
-2 -6 -1 1799.67 292.863 8
2 6 1 1840.63 338.855 4
-2 -6 -2 1143.25 219.026 3
-2 -6 -2 1214.66 261.981 8
2 6 2 1283.58 288.47 4
-2 -6 -3 356.047 149.895 3
-2 -6 -3 486.186 195.155 8
2 6 3 533.508 208.81 4
-2 -6 -4 1004.51 222.056 3
2 6 4 1284.22 285.91 4
-2 -6 -4 1520.38 327.776 8
2 6 5 736.903 204.751 4
-2 -6 -5 719.097 217.021 3
-2 -6 -5 1130.6 306.167 8
-2 -6 -6 41.0016 84.0422 8
-2 -6 -6 8.56503 114.043 3
2 6 6 46.7978 65.5965 4
-2 -6 -7 235.921 154.387 3
-2 -6 -7 28.7781 63.5283 8
2 6 7 152.664 95.5675 4
-2 -6 -8 1244.01 333.087 3
2 7 -10 -100.334 89.6878 4
2 7 -10 94.2119 148.138 7
2 7 -9 168.751 144.294 7
2 7 -9 6.20495 60.1406 4
2 7 -8 -105.968 75.0289 4
2 7 -8 -146.816 163.162 7
2 7 -7 1403.09 333.607 4
2 7 -7 1280.25 329.306 7
-2 -7 7 1211.99 271.249 1
-2 -7 6 667.804 208.196 1
2 7 -6 329.79 143.392 4
2 7 -6 277.769 162.036 7
2 7 -5 432.707 185.075 7
-2 -7 5 382.681 153.072 1
2 7 -5 308.859 138.68 4
2 7 -4 204.519 135.676 4
2 7 -4 154.517 125.828 7
2 7 -3 2789.39 462.516 4
2 7 -3 2018.11 340.779 7
2 7 -2 278.331 105.333 7
2 7 -2 163.108 85.4706 4
2 7 -1 684.512 166.087 7
-2 -7 1 589.03 164.087 8
2 7 -1 606.771 214.578 4
-2 -7 0 848.775 214.001 8
2 7 0 901.428 267.946 4
-2 -7 -1 1552.67 282.803 3
2 7 1 1510.05 340.655 4
-2 -7 -1 1378.55 274.827 8
-2 -7 -2 1211.2 278.492 8
2 7 2 1613.87 347.264 4
-2 -7 -2 1396.4 268.106 3
-2 -7 -3 1993.34 318.362 3
2 7 3 2392.28 439.973 4
-2 -7 -3 2554.57 425.438 8
-2 -7 -4 1923.8 323.317 3
2 7 4 2516.89 435.548 4
-2 -7 -4 2617.33 440.358 8
-2 -7 -5 213.289 141.256 3
2 7 5 168.766 126.094 4
-2 -7 -5 122.684 105.414 8
-2 -7 -6 428.529 191.443 3
-2 -7 -6 570.515 213.591 8
2 7 6 724.014 238.253 4
-2 -7 -7 127.288 154.985 3
-2 -7 -7 -2.14678 75.0178 8
2 8 -8 777.83 270.752 7
2 8 -8 654.496 251.799 4
2 8 -7 2514.4 461.625 4
2 8 -7 2630.04 499.998 7
2 8 -6 472.236 214.911 4
2 8 -6 355.184 182.789 7
-2 -8 6 316.377 154.009 1
-2 -8 5 160.454 136.111 1
2 8 -5 196.139 156.413 4
2 8 -5 170.793 119.504 7
2 8 -4 -100.368 163.272 4
2 8 -4 -23.8459 71.391 7
2 8 -3 247.791 169.199 4
2 8 -3 46.4375 91.4938 7
2 8 -2 -22.5367 97.383 4
-2 -8 2 -8.83967 32.5275 8
2 8 -2 83.1065 91.7294 7
2 8 -1 270.706 114.688 7
-2 -8 1 215.006 105.682 8
2 8 -1 226.095 110.893 4
-2 -8 0 1619.09 305.295 8
2 8 0 2009.23 434.874 4
2 8 1 -136.011 156.652 4
-2 -8 -1 -51.5749 75.4061 8
-2 -8 -1 -8.23219 66.0658 3
-2 -8 -2 519.919 163.456 3
2 8 2 317.039 141.221 4
-2 -8 -2 676.602 214.375 8
-2 -8 -3 507.939 182.479 3
2 8 3 449.786 224.951 4
-2 -8 -3 515.236 193.292 8
-2 -8 -4 203.666 75.1462 3
-2 -8 -4 485.622 209.981 8
2 8 4 324.609 153.417 4
-2 -8 -5 -4.61199 82.8554 8
2 8 5 107.095 61.7878 4
-2 -8 -5 148.691 127.69 3
-2 -8 -6 66.1988 101.759 3
2 8 6 327.567 183.606 4
-2 -8 -6 253.253 165.352 8
2 9 -6 17.0811 67.8789 4
2 9 -6 -95.0454 131 7
2 9 -5 -148.712 136.229 7
2 9 -5 110.985 143.674 4
2 9 -4 -21.9876 70.9742 7
2 9 -4 95.7467 85.6771 4
2 9 -3 252.738 178.548 4
2 9 -3 149.697 109.396 7
2 9 -2 302.419 209.446 4
2 9 -2 135.955 74.7313 7
-2 -9 1 -111.188 89.4907 8
2 9 -1 22.1487 95.3743 4
-2 -9 0 663.526 207.538 8
2 9 0 654.406 261.797 4
2 9 1 1737.88 446.754 4
-2 -9 -1 1201.66 301.339 8
2 9 2 1174.29 367.239 4
-2 -9 -2 945.766 262.381 8
-2 -9 -3 831.978 242.446 3
-2 -9 -3 807.468 256.622 8
2 9 3 914.918 305.109 4
2 9 4 640.727 255.345 4
-2 -9 -4 329.313 154.495 3
-2 -9 -4 434.769 201.743 8
2 10 -2 308.235 302.823 4
2 10 -1 -80.5057 199.533 4
2 10 0 204.094 256.337 4
-3 10 2 833.57 348.447 4
-3 10 1 37.6844 142.777 4
-3 10 0 799.16 265.888 4
-3 10 -1 342.539 179.252 4
3 -9 -6 42.085 77.504 2
3 -9 -5 778.287 254.775 2
-3 9 4 293.014 154.952 4
3 -9 -4 189.94 158.398 2
-3 9 3 552.479 211.78 4
-3 9 2 3343.97 505.856 4
-3 9 1 3098.6 486.983 4
-3 9 0 1826.87 384.386 4
-3 9 0 1155.07 290.877 7
-3 9 -1 -51.5282 82.5857 4
-3 9 -1 27.4821 61.6077 7
-3 9 -2 1789.99 391.745 4
-3 9 -2 1449.24 374.878 7
-3 9 -3 256.936 141.17 4
-3 9 -3 -230.219 199.684 7
-3 9 -4 199.325 115.453 4
-3 9 -4 638.379 275.527 7
-3 9 -5 76.5678 101.692 4
-3 9 -5 21.8016 84.6611 7
3 -8 -8 176.552 116.627 2
3 -8 -7 648.62 211.716 2
3 -8 -6 71.7519 86.089 2
3 -8 -5 238.625 150.708 2
-3 8 4 252.681 126.405 4
3 -8 -4 198.321 115.378 2
-3 8 3 1446.74 310.82 4
-3 8 2 2265.29 375.461 4
-3 8 1 1246.59 265.278 7
-3 8 1 1404.61 305.655 4
-3 8 0 1829.43 355.13 4
-3 8 0 1802.93 336.613 7
-3 8 -1 925.835 252.101 4
-3 8 -1 802.313 241.963 7
-3 8 -2 134.052 117.895 7
-3 8 -2 655.676 217.564 4
-3 8 -3 99.9682 92.7726 4
-3 8 -3 -10.1248 82.9806 7
-3 8 -4 130.037 114.401 4
-3 8 -4 6.36736 79.8503 7
-3 8 -5 -39.2057 89.033 4
-3 8 -5 100.501 114.658 7
-3 8 -6 263.137 131.16 4
-3 8 -6 225.219 182.311 7
-3 8 -7 292.587 204.232 7
3 -7 -9 958.359 238.641 2
3 -7 -8 257.27 122.406 2
3 -7 -7 379.856 147.998 2
3 -7 -6 1163.95 254.214 2
3 -7 -5 39.8929 86.6952 2
3 -7 -4 3904.66 469.387 2
-3 7 4 6025.36 609.555 4
-3 7 3 8969.82 721.551 4
-3 7 2 3068.35 416.454 4
-3 7 1 808.944 205.657 7
-3 7 1 757.881 199.557 4
-3 7 0 785.697 216.494 4
-3 7 0 687.83 210.53 7
-3 7 -1 2749.82 405.147 4
-3 7 -1 2254.89 386.28 7
-3 7 -2 725.969 212.762 4
-3 7 -2 565.037 195.742 7
-3 7 -3 3091.36 427.767 4
-3 7 -3 3263.17 508.618 7
-3 7 -4 541.982 187.256 4
-3 7 -4 620.554 244.632 7
-3 7 -5 264.369 181.55 7
-3 7 -5 464.388 168.626 4
-3 7 -6 -74.0595 76.81 4
-3 7 -6 -222.433 171.478 7
-3 7 -7 262.652 155.437 7
-3 7 -8 103.577 120.596 7
3 -6 -10 488.741 182.765 2
-3 6 10 86.3674 99.4911 5
3 -6 -9 292.05 125.746 2
-3 6 9 382.467 148.823 5
-3 6 8 251.573 143.716 5
3 -6 -8 6.96394 99.9437 2
3 -6 -7 -45.8517 76.9321 2
3 -6 -6 409.715 152.296 2
3 -6 -5 150.054 114.806 2
3 -6 -4 2964.11 376.796 2
-3 6 4 2460.76 241.717 7
-3 6 3 8348.58 656.051 4
-3 6 3 7503.9 498.708 7
3 -6 -3 7163.25 580.334 2
-3 6 2 4182.58 454.232 4
3 -6 -2 2696.08 196.731 3
-3 6 1 6447.09 554.78 4
-3 6 0 1902.08 299.155 4
-3 6 0 2018.1 325.036 7
-3 6 -1 13888.8 907.708 7
-3 6 -1 13289.9 812.697 4
-3 6 -2 1226.09 245.152 4
-3 6 -2 929.75 241.022 7
-3 6 -3 798.048 197.796 4
-3 6 -3 198.305 114.164 7
-3 6 -4 2284.13 334.404 4
-3 6 -4 2352.21 430.072 7
-3 6 -5 -16.7107 34.6714 4
-3 6 -5 157.008 135.344 7
-3 6 -6 298.921 114.277 4
-3 6 -6 305.413 179.509 7
-3 6 -7 500.001 229.695 7
-3 6 -8 147.655 134.929 7
-3 6 -9 62.0077 96.9833 7
-3 5 11 1367.86 300.394 5
3 -5 -11 1272.33 362.083 8
3 -5 -10 50.8804 74.2932 2
-3 5 10 144.621 120.539 5
3 -5 -9 21.2061 51.3909 2
-3 5 9 89.7075 43.1486 5
-3 5 8 1621.05 295.131 5
3 -5 -8 1674.3 294.315 2
-3 5 7 701.308 191.503 5
3 -5 -7 405.453 132.891 2
3 -5 -6 3038.06 375.359 2
-3 5 6 3832.79 440.472 5
3 -5 -5 3158.88 373.532 2
-3 5 5 2711.76 221.385 7
-3 5 4 17259.5 653.098 7
3 -5 -4 18650.6 903.231 2
3 -5 -3 3976.07 409.412 2
-3 5 3 4258.28 362.273 7
-3 5 2 573.3 142.569 7
-3 5 2 495.356 146.757 4
3 -5 -2 496.664 131.577 2
-3 5 1 8225.75 572.86 4
-3 5 0 449.252 122.477 4
-3 5 -1 906.998 190.889 4
-3 5 -1 970.665 232.079 7
-3 5 -2 7603.97 541.275 4
-3 5 -2 7628.31 677.892 7
-3 5 -3 877.618 254.452 7
-3 5 -3 703.378 169.819 4
-3 5 -4 3749.33 239.552 3
-3 5 -4 5012.24 438.624 4
-3 5 -4 5514.27 621.302 7
-3 5 -5 664.863 219.132 7
-3 5 -5 602.099 143.295 4
3 -5 6 1141.24 188.247 2
-3 5 -6 1304.32 316.615 7
-3 5 -6 1251.54 197.528 4
-3 5 -7 1073.92 316.555 7
-3 5 -8 148.613 147.08 7
-3 5 -9 436.409 214.497 7
-3 5 -10 -134.518 210.761 7
-3 4 11 247.266 126.647 5
3 -4 -11 20.6787 85.2 8
-3 4 10 403.898 161.929 5
3 -4 -10 557.018 163.585 2
3 -4 -9 217.244 135.771 2
-3 4 9 -2.2724 71.2605 5
3 -4 -8 431.018 139.513 2
-3 4 8 533.285 177.662 5
3 -4 -7 800.877 178.804 2
-3 4 7 886.365 205.372 5
-3 4 6 4612.2 455.515 5
3 -4 -6 4300.73 405.745 2
3 -4 -5 27757 1008.67 2
-3 4 5 36158.7 1317.71 5
3 -4 -4 1221.21 211.816 2
3 -4 -3 45568.1 1282.28 2
-3 4 3 44512.5 1049.1 7
-3 4 2 5463.85 397.252 7
3 -4 -2 5324.25 439.861 2
-3 4 1 1685 243.235 7
3 -4 -1 1320.22 218.959 2
-3 4 1 1841.96 248.135 4
3 -4 0 4431.15 373.106 2
-3 4 0 4982.36 404.287 4
-3 4 -1 118.626 58.8162 4
3 -4 1 86.8243 48.7725 2
-3 4 -2 220.301 43.1984 1
-3 4 -2 621.653 130.507 4
-3 4 -2 527.152 177.112 7
3 -4 2 418.606 115.407 2
-3 4 -3 39.9886 40.5311 4
-3 4 -3 25.3447 23.0929 3
3 -4 3 -24.3576 35.5082 2
3 -4 4 910.831 162.729 2
-3 4 -4 1028.89 165.708 4
-3 4 -4 1301.74 296.67 7
-3 4 -4 957.449 145.175 3
3 -4 5 2974.69 271.139 2
-3 4 -5 3345.73 303.004 3
-3 4 -5 4122.86 321.322 4
-3 4 -5 3959.17 529.871 7
-3 4 -6 1675.78 365.812 7
3 -4 6 1125.84 150.064 2
-3 4 -7 2892.99 495.182 7
-3 4 -8 -39.8996 102.752 7
-3 4 -9 630.49 254.319 7
-3 4 -10 47.6814 74.4107 7
-3 3 12 503.717 191.085 5
3 -3 -12 492.115 228.415 8
-3 3 11 229.733 126.279 5
3 -3 -11 137.174 106.388 8
-3 3 10 2012.36 331.635 5
3 -3 -10 2656.97 363.74 2
-3 3 9 351.531 146.19 5
3 -3 -9 444.149 159.345 2
-3 3 8 17652.7 915.89 5
3 -3 -8 17928.4 850.64 2
-3 3 7 3090.72 362.564 5
3 -3 -7 3368.06 346.147 2
-3 3 6 15832.1 815.72 5
3 -3 -6 13280.1 682.027 2
3 -3 -5 19305.2 799.339 2
3 -3 -4 1619.37 222.572 2
3 -3 -3 7411.44 467.249 2
3 -3 -2 22725.8 812.693 2
3 -3 -1 13924.1 632.723 2
3 -3 0 58386.5 1240.63 2
-3 3 0 59413.8 1432.05 7
3 -3 0 57732.2 841.181 3
3 -3 1 35600.6 937.659 2
3 -3 2 45911.8 1031.92 2
-3 3 -2 45169.7 783.745 3
-3 3 -3 1454.69 168.557 3
3 -3 3 1244.47 165.359 2
-3 3 -4 15528.1 632.997 3
3 -3 4 13473.8 497.831 2
3 -3 5 4041.93 244.685 2
-3 3 -5 3995.63 347.656 3
-3 3 -5 4627.02 560.629 7
-3 3 -6 586.755 222.51 7
-3 3 -7 369.688 150.397 7
-3 3 -8 667.256 247.265 7
-3 3 -9 1080.4 325.643 7
-3 3 -10 815.131 283.335 7
-3 2 12 571.059 215.945 5
3 -2 -12 622.663 233.302 8
-3 2 11 451.84 176.401 5
3 -2 -11 437.921 188.556 8
-3 2 10 3361.69 424.186 5
3 -2 -10 2907.98 334.009 2
-3 2 9 4982.51 487.587 5
3 -2 -9 4943.69 434.097 2
3 -2 -8 8090.92 552.982 2
-3 2 8 7714.42 572.421 5
-3 2 7 8588.3 578.771 5
3 -2 -7 9183.14 572.273 2
3 -2 -6 1677.38 235.739 2
3 -2 -5 24043.2 841.412 2
3 -2 -4 18265 707.659 2
3 -2 -3 7139.54 436.641 2
-3 2 2 77.1194 30.535 1
3 -2 -2 118.68 65.9205 2
3 -2 -1 935.445 158.507 2
3 -2 0 68407.9 1211.43 2
-3 2 -1 8913.42 372.804 3
3 -2 1 8797.79 422.091 2
-3 2 -2 24895.9 685.054 3
3 -2 2 24958.4 660.901 2
-3 2 -3 2344.14 233.136 3
3 -2 3 2168.82 175.568 2
-3 2 -3 1854.79 247.448 6
-3 2 -4 11053 564.104 3
3 -2 4 9709.51 375.657 4
3 -2 4 10709.5 354.753 2
-3 2 -4 10356.7 590.559 6
-3 2 -5 478.743 123.503 3
3 -2 5 461.169 61.2536 4
-3 2 -5 404.57 126.266 6
-3 2 -5 492.731 164.689 7
3 -2 5 476.258 58.7412 2
-3 2 -6 899.917 199.73 6
-3 2 -6 1252.17 286.909 7
-3 2 -7 1505.33 264.36 6
-3 2 -7 1858.48 372.542 7
-3 2 -8 288.27 148.747 7
-3 2 -8 76.1895 55.9587 6
-3 2 -9 217.157 132.488 7
-3 2 -10 145.201 95.7998 7
-3 2 -11 -71.0874 79.9632 7
-3 1 13 -36.7745 93.9277 5
-3 1 12 -3.17199 65.8448 5
3 -1 -11 1259.69 288.401 8
-3 1 11 1250.21 292.376 5
3 -1 -10 2387.72 294.774 2
3 -1 -10 2599.26 401.234 8
-3 1 10 2397.34 352.369 5
-3 1 9 27066.6 1164.56 5
3 -1 -9 24769.4 943.97 2
-3 1 8 3382.06 377.644 5
3 -1 -8 2999.15 312.884 2
-3 1 7 11391.5 666.572 5
3 -1 -7 10076.5 542.286 2
3 -1 -6 3060.37 297.756 2
3 -1 -5 3685.43 325.558 2
-3 1 4 33544.9 937.005 1
3 -1 -4 32538.6 911.925 2
-3 1 3 14011.4 622.537 5
3 -1 -3 15475.2 604.352 2
-3 1 3 13482.8 514.006 1
3 -1 -2 61142.3 1156.1 2
-3 1 2 61839.2 1069.86 6
3 -1 -1 2571.77 232.894 2
3 -1 0 252881 2140.2 2
-3 1 -1 35639.7 835.571 3
3 -1 1 33515.2 731.302 2
-3 1 -2 67400.9 1219.5 3
3 -1 2 56538.5 839.925 2
-3 1 -3 52363.1 1193.33 3
3 -1 3 53530.6 807.324 4
3 -1 3 49786.7 740.854 2
-3 1 -4 952.707 174.659 6
-3 1 -4 1045.78 188.217 3
-3 1 -4 1228.9 241.298 7
3 -1 4 610.856 62.318 4
3 -1 4 1051.24 90.9299 2
-3 1 -5 8580.08 562.167 3
-3 1 -5 8019.12 528.112 6
-3 1 -6 2366.42 369.76 7
-3 1 -6 2128.69 298.713 3
-3 1 -6 1833.38 262.93 6
-3 1 -7 1424.48 236.385 6
-3 1 -7 2195.97 382.174 7
-3 1 -8 1208.09 231.762 6
-3 1 -8 1377.71 316.719 7
-3 1 -9 397.431 125.533 6
-3 1 -9 385.538 175.157 7
-3 1 -10 1154.73 319.129 7
-3 1 -11 -151.549 177.451 3
-3 1 -11 -202.847 142.012 7
-3 0 13 529.763 220.112 5
-3 0 12 38.0601 88.9247 5
3 0 -12 292.289 148.251 7
-3 0 11 1626.42 324.836 5
3 0 -11 1561.3 298.69 7
-3 0 10 442.481 162.737 5
3 0 -10 466.801 155.015 7
3 0 -10 424.438 126.286 2
3 0 -10 519.411 161.585 8
-3 0 9 4123.36 445.532 5
3 0 -9 3346.72 329.915 2
3 0 -9 3851.76 419.072 7
-3 0 8 2164.66 298.87 5
3 0 -8 1966.33 248.177 2
3 0 -8 2028.99 285.556 7
-3 0 7 789.609 169.76 5
3 0 -7 805.929 174.739 7
3 0 -7 752.722 153.182 2
-3 0 6 15591.9 727.74 5
3 0 -6 15665.3 719.062 7
3 0 -6 13679.8 612.645 2
-3 0 5 15945 662.34 5
3 0 -5 15679.1 634.061 2
3 0 -4 53420.5 1105.3 2
-3 0 4 55298.6 1138.09 5
-3 0 4 51858 738.088 6
-3 0 3 79731.8 1335.73 5
-3 0 3 80687.9 1027.57 6
3 0 -2 8030.43 397.083 2
-3 0 2 9727.57 395.428 6
3 0 -1 5921.3 327.851 2
-3 0 0 4802.07 327.221 3
3 0 0 3936.58 256.543 2
-3 0 -1 24700 753.556 3
3 0 1 22954.7 577.412 2
-3 0 -2 51893.6 1164.49 3
3 0 2 50276.3 833.144 2
3 0 3 14779 441.458 2
-3 0 -3 14514.1 722.269 7
-3 0 -3 13756.3 633.8 6
-3 0 -3 13811.4 653.762 3
-3 0 -4 57.9186 29.4174 2
-3 0 -4 123.618 90.449 3
-3 0 -4 39.9663 72.9041 7
-3 0 -4 -64.4515 78.6651 6
-3 0 -5 43330.9 1444.52 7
-3 0 -5 42078.7 1309.97 3
-3 0 -6 124.428 49.1067 3
-3 0 -6 154.932 59.5277 7
-3 0 -7 13568.3 850.359 3
-3 0 -7 14629.8 959.042 7
-3 0 -8 -52.9647 61.0926 6
-3 0 -8 39.1908 83.4721 3
-3 0 -8 117.605 112.818 7
-3 0 -9 82.0474 64.06 6
-3 0 -9 317.302 138.021 3
-3 0 -9 168.905 123.092 7
-3 0 -10 284.524 188.392 3
-3 0 -10 100.666 77.784 7
-3 0 -11 -39.6942 151.367 3
-3 -1 13 -154.643 147.714 5
3 1 -13 0.89439 107.439 7
-3 -1 12 130.528 84.2491 5
3 1 -12 141.992 121.135 7
-3 -1 11 1481.99 313.755 5
3 1 -11 1313.66 275.428 7
-3 -1 10 1245.97 264.185 5
3 1 -10 938.117 188.46 2
3 1 -10 977.546 225.39 7
-3 -1 9 489.86 168.753 5
3 1 -9 409.917 125.512 2
3 1 -9 378.179 148.069 7
3 1 -9 417.972 115.768 8
-3 -1 8 3027.73 355.519 5
3 1 -8 2490.64 277.918 2
3 1 -8 2486.87 337.212 7
-3 -1 7 -5.67843 55.2558 5
3 1 -7 3.36406 33.142 2
3 1 -7 81.6274 83.4471 7
3 1 -6 16875 793.094 7
3 1 -6 14736.3 637.404 2
-3 -1 6 15563 692.044 5
3 1 -5 7168.04 506.499 7
-3 -1 5 6369.32 400.634 5
-3 -1 5 7617.5 511.117 1
-3 -1 5 5151.65 198.581 6
3 1 -5 6240.3 396.132 2
-3 -1 4 56418 1110.19 5
3 1 -4 53832.8 1129.49 2
-3 -1 4 54502.4 830.422 6
-3 -1 3 5747.14 312.735 5
-3 -1 3 6782.96 333.695 6
3 1 -3 5807.67 355.228 2
-3 -1 2 18244.6 502.007 5
3 1 -2 19954.1 642.814 2
3 1 -1 45672.7 758.805 5
3 1 -1 44289.6 925.525 2
-3 -1 0 2525.32 261.48 3
3 1 0 2395.96 218.397 2
-3 -1 -1 133626 1892.33 3
3 1 1 125470 1592.4 2
3 1 2 5349.18 315.271 4
-3 -1 -2 5802.85 413.017 3
-3 -1 -3 4150.48 383.426 3
3 1 3 3825.22 252.39 4
-3 -1 -3 4514.28 380.079 6
-3 -1 -4 1987.12 265.452 7
3 1 4 1696.63 148.351 4
-3 -1 -4 1676.97 256.514 3
-3 -1 -4 1781.01 249.043 6
-3 -1 -5 3452.83 390.951 3
3 1 5 2105.62 126.483 4
-3 -1 -5 3351.05 379.396 7
-3 -1 -5 3146.26 342.938 6
-3 -1 -6 11856.7 781.138 7
-3 -1 -6 12749.4 810.738 3
-3 -1 -6 12022.8 713.23 6
-3 -1 -7 7553.65 667.015 3
-3 -1 -7 7691.05 663.352 7
-3 -1 -7 7108.81 566.394 6
-3 -1 -8 226.813 114.092 3
-3 -1 -8 100.083 58.8744 7
-3 -1 -8 12.6255 127.664 6
-3 -1 -9 506.51 192.12 6
-3 -1 -9 637.43 217.113 7
-3 -1 -9 554.93 203.851 3
3 1 10 1214.44 312.769 5
-3 -1 -10 852.971 292.091 3
-3 -2 12 292.279 155.91 5
3 2 -12 285.163 147.705 7
3 2 -11 200.817 113.879 7
3 2 -11 118.023 88.8477 4
-3 -2 10 28.0483 99.1301 5
3 2 -10 27.7067 48.7699 2
3 2 -10 -13.3492 105.318 7
3 2 -9 796.406 174.255 2
-3 -2 9 929.94 222.108 5
3 2 -9 902.084 219.544 7
-3 -2 8 1424.2 246.77 5
3 2 -8 1224.59 258.418 7
3 2 -8 1274.45 217.03 2
-3 -2 7 -124.765 78.359 5
3 2 -7 -85.7028 71.1719 2
3 2 -7 -24.5385 16.6297 8
3 2 -7 -59.4202 40.0676 7
-3 -2 6 11334.3 606.596 5
3 2 -6 10250.7 568.781 2
-3 -2 6 11154 674.574 1
3 2 -6 10924.1 676.305 7
-3 -2 6 8782.44 298.779 6
-3 -2 5 1098.82 170.619 5
-3 -2 5 1179.99 192.059 1
3 2 -5 1356.61 194.391 2
3 2 -4 4524.84 356.983 2
-3 -2 4 4441.35 292.344 5
-3 -2 3 10836.7 405.237 5
3 2 -3 12197.3 575.487 2
-3 -2 2 548.661 71.5439 5
3 2 -2 596.229 120.435 2
3 2 -1 13218.5 586.401 2
3 2 -1 12103.7 569.589 4
-3 -2 0 48154.8 1215.17 3
3 2 0 39935.2 1040.62 4
-3 -2 -1 50553.4 1237.9 3
3 2 1 46296.7 1123.17 4
3 2 2 18415.7 697.439 4
-3 -2 -2 20507.2 827.847 3
-3 -2 -3 10880 650.483 3
3 2 3 10129 515.889 4
-3 -2 -4 8192.94 601.497 3
3 2 4 7208.04 401.646 4
-3 -2 -4 7451.54 524.291 6
-3 -2 -5 4966.64 437.154 7
-3 -2 -5 6154.83 556.986 3
3 2 5 5501.89 326.941 4
-3 -2 -5 5111.11 455.466 6
-3 -2 -6 9983.27 668.752 7
-3 -2 -6 12111.6 820.224 3
-3 -2 -6 11080.8 727.295 6
3 2 7 605.985 163.493 5
-3 -2 -7 526.951 161.327 7
-3 -2 -7 433.039 158.094 3
-3 -2 -7 526.43 171.885 6
3 2 8 -63.2682 69.1522 5
-3 -2 -8 -40.7674 108.694 3
-3 -2 -8 -144.29 120.586 7
-3 -2 -8 47.2645 95.3559 6
3 2 9 455.022 164.048 5
-3 -2 -9 489.22 183.969 3
-3 -2 -9 638.534 220.524 6
3 2 10 -12.305 121.383 5
-3 -2 -10 -37.7733 143.217 3
-3 -3 12 642.852 231.752 5
3 3 -12 427.312 174.281 7
-3 -3 11 -161.585 134.026 5
3 3 -11 -218.702 147.658 7
3 3 -11 -43.575 68.2217 4
3 3 -10 81.3467 76.8105 7
3 3 -10 54.1679 49.008 4
-3 -3 9 464.587 162.655 5
3 3 -9 584.327 202.472 7
3 3 -9 450.714 139.48 4
-3 -3 8 998.092 218.46 5
3 3 -8 849.63 230.588 7
3 3 -8 764.165 181.576 4
-3 -3 7 4313.54 408.803 5
-3 -3 7 4678.84 485.509 1
3 3 -7 4245.38 414.904 4
3 3 -7 4211.03 468.682 7
3 3 -6 1827.32 268.318 4
-3 -3 6 1024.92 186.077 5
3 3 -6 1588.94 294.244 7
-3 -3 6 857.736 194.263 1
-3 -3 5 9405.62 489.621 5
3 3 -5 8818.24 570.816 4
-3 -3 5 9517.75 588.907 1
-3 -3 4 20582.5 624.343 5
3 3 -4 20862 864.038 4
-3 -3 3 9918.97 366.404 5
3 3 -3 10287.4 612.645 4
-3 -3 2 5605.18 190.622 5
3 3 -2 7198.92 505.242 4
3 3 -1 41187.3 1204.39 4
-3 -3 0 31778.5 1060.98 3
3 3 0 27499.6 958.026 4
-3 -3 -1 8450.95 543.868 3
3 3 1 8305.86 543.695 4
-3 -3 -2 7455.22 531.363 3
3 3 2 5966.07 244.848 5
3 3 2 7171.67 514.595 4
3 3 3 96.9021 52.4076 5
-3 -3 -3 282.595 123.861 3
3 3 3 303.83 107.228 4
3 3 4 3807.89 286.809 5
-3 -3 -4 3991.19 440.564 3
3 3 4 4319.1 380.548 4
-3 -3 -5 53156 1704.75 3
3 3 5 51515.3 1257.64 4
3 3 6 9108.98 557.529 5
-3 -3 -6 10999.3 819.342 3
3 3 6 11034.1 555.001 4
-3 -3 -6 8415.55 581.832 7
-3 -3 -6 10244.4 728.157 6
3 3 7 1794.08 278.286 5
-3 -3 -7 1979.37 372.333 3
-3 -3 -7 1788.24 327.688 6
3 3 8 317.24 131.43 5
-3 -3 -8 450.334 181.785 3
-3 -3 -8 145.668 97.568 6
3 3 9 521.204 147.047 5
-3 -3 -9 576.065 220.666 3
-3 -3 -9 312.019 172.241 6
3 3 10 -23.7415 50.9683 5
-3 -3 -10 23.2696 84.4802 3
-3 -3 -10 25.4207 134.941 6
-3 -4 12 111.453 90.0864 5
3 4 -12 68.0908 91.3808 7
3 4 -11 -16.2078 139.489 7
-3 -4 11 5.9505 80.4245 5
3 4 -11 -43.323 50.7462 4
-3 -4 10 -73.822 90.2111 5
3 4 -10 -33.2095 109.325 7
3 4 -10 93.8464 64.6511 4
-3 -4 9 421.071 155.217 5
3 4 -9 618.152 225.419 7
3 4 -9 345.961 143.989 4
-3 -4 8 569.991 174.277 5
3 4 -8 481.875 183.473 7
3 4 -8 339.08 138.342 4
3 4 -7 694.791 202.274 7
-3 -4 7 816.507 222.162 1
3 4 -7 761.656 189.67 4
3 4 -6 -20.7116 77.9672 7
3 4 -6 -29.6763 83.4956 4
-3 -4 6 58.4251 80.6817 1
3 4 -5 193.585 104.939 7
3 4 -5 289.309 106.41 4
3 4 -4 9570.02 652.357 4
3 4 -4 11487.9 707.921 7
3 4 -3 4354.04 428.975 7
3 4 -3 2968.49 349.853 4
-3 -4 2 15947.5 318.842 5
3 4 -2 23479.7 975.159 4
3 4 -1 17925 898.011 4
-3 -4 0 7235.89 546.887 3
3 4 0 6510.3 550.86 4
-3 -4 -1 780.111 174.538 3
3 4 1 877.079 204.724 4
-3 -4 -2 13213.8 743.008 3
3 4 2 11778.9 370.294 5
3 4 2 14616.2 842.591 4
3 4 3 129.097 46.7731 5
-3 -4 -3 78.4836 54.8235 3
3 4 3 231.36 100.038 4
-3 -4 -4 14225.6 846.711 3
3 4 4 14914.1 824.604 4
-3 -4 -5 1413.6 216.783 7
-3 -4 -5 1637.55 307.458 3
3 4 5 1597.96 265.733 4
3 4 6 -39.5264 49.837 5
-3 -4 -6 -90.9448 125.186 3
3 4 6 -0.41668 42.2059 4
3 4 7 27.5203 67.1268 5
-3 -4 -7 82.4941 112.662 3
-3 -4 -7 303.603 163.679 6
3 4 8 71.7831 43.7304 5
-3 -4 -8 150.746 74.7536 3
-3 -4 -8 -39.2435 78.5981 6
3 4 9 45.6425 68.6496 5
-3 -4 -9 118.849 103.63 3
-3 -4 -9 56.647 106.372 6
-3 -5 11 166.055 127.898 5
3 5 -11 147.524 122.366 7
3 5 -11 -46.6206 82.0468 4
-3 -5 10 -55.7075 77.7429 5
3 5 -10 62.0165 102.286 7
3 5 -10 80.2567 71.9133 4
3 5 -9 742.39 238.761 7
3 5 -9 530.805 189.94 4
-3 -5 8 518.136 191.302 1
3 5 -8 640.763 218.699 7
3 5 -8 288.079 125.573 4
-3 -5 7 1423 285.639 1
3 5 -7 1231.2 253.853 4
3 5 -7 1455.55 313.111 7
-3 -5 6 2578.02 360.089 1
3 5 -6 1779.7 304.229 4
3 5 -6 1974.39 341.381 7
3 5 -5 1436.98 281.874 7
3 5 -5 1170.04 250.852 4
3 5 -4 2858.42 389.012 4
3 5 -4 3755.45 421.488 7
3 5 -3 225.781 101.233 4
3 5 -3 267.233 112.136 7
3 5 -2 16973.5 976.801 4
3 5 -1 -0.07937 48.5885 4
-3 -5 0 5229.15 495.159 3
3 5 0 5374.9 573.713 4
-3 -5 -1 12294.1 762.89 3
3 5 1 13585.1 906.21 4
-3 -5 -2 2756.06 348.604 3
3 5 2 2833.45 409.198 4
-3 -5 -3 41434.1 1449.78 3
3 5 3 47395.6 1655.1 4
-3 -5 -4 31546.9 1317.15 3
3 5 4 35236.2 1400.46 4
-3 -5 -5 166.507 105.104 3
3 5 5 98.3236 39.1249 4
-3 -5 -6 491.761 187.751 3
3 5 6 732.817 210.789 4
-3 -5 -7 1442.26 330.109 3
-3 -5 -8 22.1511 96.9998 3
-3 -5 -8 122.749 120.29 6
3 6 -10 7.7769 81.2023 7
3 6 -10 -38.4399 113.66 4
3 6 -9 26.8491 63.0743 7
3 6 -9 215.076 130.201 4
3 6 -8 160.597 91.5508 4
-3 -6 8 311.051 166.449 1
3 6 -8 232.434 164.62 7
-3 -6 7 480.442 175.614 1
3 6 -7 368.162 171.394 7
3 6 -7 321.502 163.622 4
3 6 -6 3225.12 459.708 4
3 6 -6 2029.62 372.241 7
3 6 -5 796.703 213.644 7
3 6 -5 384.662 152.287 4
3 6 -4 3061.19 449.579 4
3 6 -4 2905.45 398.675 7
3 6 -3 2757.58 437.411 4
3 6 -3 2759.26 383.253 7
3 6 -2 2238.04 384.837 4
3 6 -1 383.15 163.708 4
3 6 0 1128.32 292.693 4
-3 -6 0 866.632 221.535 3
-3 -6 -1 9336.18 699.786 3
3 6 1 9951.29 836.455 4
-3 -6 -2 2325.09 357.243 3
3 6 2 2820.87 443.64 4
-3 -6 -3 6276.57 578.405 3
3 6 3 7535.97 728.253 4
3 6 4 1578.97 332.199 4
-3 -6 -4 1432.97 292.384 3
-3 -6 -5 266.863 150.211 3
3 6 5 413.443 177.354 4
-3 -6 -6 406.219 168.853 3
3 6 6 658.091 211.321 4
-3 -6 -7 344.916 187.631 3
-3 -6 -8 2221.22 463.174 3
3 7 -9 -103.557 129.249 4
3 7 -9 115.737 99.7152 7
-3 -7 8 437.646 189.57 1
3 7 -8 362.646 179.159 4
3 7 -8 266.977 144.525 7
-3 -7 7 69.2559 118.353 1
3 7 -7 248.034 154.603 4
3 7 -7 34.9721 84.8178 7
-3 -7 6 281.536 117.534 1
3 7 -6 534.788 200.752 4
3 7 -6 708.324 218.979 7
3 7 -5 126.297 109.406 4
3 7 -5 12.3566 59.6718 7
3 7 -4 1154.01 268.693 7
3 7 -4 1648.72 357.938 4
3 7 -3 300.201 175.688 4
3 7 -3 313.584 135.785 7
3 7 -2 1027.92 289.588 4
3 7 -1 925.911 267.657 4
3 7 0 83.8784 105.469 4
3 7 1 8416.53 824.226 4
-3 -7 -1 8101.79 689.825 8
-3 -7 -1 7715.01 669.254 3
-3 -7 -2 21248.6 1122.28 3
3 7 2 24691.1 1464.66 4
-3 -7 -2 22271.4 1211.04 8
-3 -7 -3 3536.77 459.682 3
3 7 3 3775.01 562.404 4
-3 -7 -4 825.726 235.905 3
3 7 4 577.314 228.474 4
-3 -7 -5 -6.42725 79.0004 3
3 7 5 23.2236 60.8913 4
-3 -7 -6 985.08 259.997 3
3 7 6 924.222 265.182 4
-3 -8 8 -258.135 182.169 1
3 8 -8 51.2261 101.786 4
3 8 -8 -197.326 145.718 7
-3 -8 7 142.578 178.999 1
3 8 -7 67.7424 63.1551 4
3 8 -7 -103.036 97.3859 7
-3 -8 6 467.985 160.148 1
3 8 -6 560.549 250.194 4
3 8 -6 476.926 196.564 7
3 8 -5 -146.062 122.427 7
3 8 -5 -29.7563 93.5183 4
3 8 -4 37.9746 58.9137 7
3 8 -4 -53.4023 145.546 4
3 8 -3 -120.465 91.7858 7
3 8 -3 10.4088 101.287 4
3 8 -2 45.3601 111.658 4
3 8 -1 507.108 255.803 4
3 8 0 533.446 259.224 4
-3 -8 -1 927.79 248.619 8
3 8 1 1184.66 341.04 4
-3 -8 -2 1288.18 302.256 3
-3 -8 -2 1429.05 324.533 8
3 8 2 1374.85 351.128 4
-3 -8 -3 868.122 234.75 3
3 8 3 1121.13 328.344 4
-3 -8 -4 8.39242 73.2298 3
3 8 4 -101.426 112.117 4
-3 -8 -5 -89.4223 120.947 3
3 8 5 -108.578 141.687 4
3 9 -6 90.308 103.577 4
3 9 -6 170.24 139.413 7
3 9 -5 -73.1102 160.884 4
3 9 -5 192.277 103.193 7
3 9 -4 -42.3258 86.7183 7
3 9 -4 268.69 187.773 4
3 9 -3 349.694 192.891 4
3 9 -2 298.555 210.676 4
3 9 -1 578.231 267.673 4
3 9 0 1352.94 391.382 4
3 9 1 2760.56 549.488 4
3 9 2 83.5277 166.251 4
-3 -9 -2 270.773 149.531 3
4 -9 -5 761.149 246.184 2
4 -9 -4 245.67 173.348 2
4 -9 -3 566.967 236.039 2
-4 9 2 2194.42 412.629 4
4 -9 -2 1335.16 314.269 2
-4 9 1 2030.5 404.368 4
4 -9 -1 1615.53 335.393 2
-4 9 0 646.913 228.918 4
-4 9 0 50.2587 104.785 7
4 -9 0 656.644 230.213 2
-4 9 -1 -190.519 102.738 4
-4 9 -1 173.513 141.059 7
4 -9 1 -136.964 115.571 2
-4 9 -2 298.394 138.438 4
-4 9 -2 123.185 105.102 7
4 -9 3 -6.16356 57.6109 2
-4 9 -3 -21.0818 60.6444 4
-4 9 -3 -50.0055 125.334 7
-4 9 -4 381.771 162.723 4
-4 9 -4 -5.87814 82.1397 7
4 -9 4 203.173 145.334 2
4 -8 -7 1812.29 352.179 2
4 -8 -6 153.847 86.7422 2
4 -8 -5 4253.37 546.118 2
4 -8 -4 5670 652.883 2
4 -8 -3 176.839 96.1724 2
-4 8 2 354.775 148.739 4
4 -8 -2 531.104 204.817 2
-4 8 1 608.843 202.592 4
-4 8 1 601.286 193.96 7
4 -8 -1 367 163.819 2
-4 8 0 1223.91 287.084 4
-4 8 0 1049.85 279.698 7
4 -8 0 1068.9 260.61 2
-4 8 -1 114.096 97.3928 4
4 -8 1 -1.44517 59.0183 2
-4 8 -2 55.0986 69.5974 7
-4 8 -2 64.1929 97.0056 4
4 -8 2 -63.1158 88.2944 2
-4 8 -3 5.27559 44.8725 4
-4 8 -3 1.06236 91.9438 7
4 -8 3 51.0853 73.8114 2
4 -8 4 446.078 173.871 2
-4 8 -4 819.687 302.954 7
-4 8 -4 607.826 190.611 4
-4 8 -5 491.049 172.533 4
-4 8 -5 272.561 175.054 7
4 -8 5 352.082 160.446 2
-4 8 -6 48.9048 99.2128 7
4 -7 -9 96.7963 116.132 2
4 -7 -8 229.883 135.743 2
4 -7 -7 2312.45 376.409 2
4 -7 -6 1322.76 297.603 2
4 -7 -5 2488.19 389.666 2
4 -7 -4 888.934 245.886 2
4 -7 -3 18102.7 1059.3 2
4 -7 -2 4780.92 533.148 2
-4 7 2 5676.22 562.972 7
-4 7 1 915.1 246.039 4
-4 7 1 927.988 238.738 7
4 -7 -1 900.392 224.484 2
4 -7 0 4815.83 516.745 2
-4 7 0 6015.77 595.827 4
-4 7 0 5132.39 596.97 7
-4 7 -1 451.913 147.244 4
-4 7 -1 613.804 210.908 7
4 -7 1 465.376 156.149 2
-4 7 -2 2684.47 386.114 4
-4 7 -2 2790.65 481.748 7
4 -7 2 2338.5 359.515 2
-4 7 -3 280.274 141.22 4
4 -7 3 246.115 91.7765 2
-4 7 -3 457.358 205.613 7
-4 7 -4 190.986 111.722 4
-4 7 -4 195.434 170.78 7
4 -7 4 81.8768 72.7847 2
-4 7 -5 1395.22 271.766 4
-4 7 -5 1622.99 410.314 7
4 -7 5 1357.34 267.891 2
-4 7 -6 24.1338 136.568 7
-4 7 -7 81.6782 87.5402 7
4 -6 -10 2242.64 372.115 2
-4 6 10 2319.25 389.008 5
4 -6 -9 7202.1 672.699 2
4 -6 -8 284.747 119.23 2
4 -6 -7 1771.77 304.324 2
4 -6 -6 13341.4 841.352 2
4 -6 -5 3834.37 458.268 2
4 -6 -4 2862.4 381.098 2
4 -6 -3 -19.3182 57.9213 2
4 -6 -2 4993.27 510.959 2
4 -6 -1 2166.42 331.42 2
-4 6 1 2472.98 368.654 7
4 -6 0 4089.53 453.767 2
-4 6 0 4860.66 494.639 4
-4 6 0 4440.75 535.035 7
-4 6 -1 181.441 87.3312 4
-4 6 -1 513.532 185.104 7
4 -6 1 250.171 112.439 2
4 -6 2 6124.86 544.104 2
-4 6 -2 7324.68 588.174 4
-4 6 -2 7530.9 769.541 7
4 -6 3 3362 394.028 2
-4 6 -3 3926.91 424.355 4
-4 6 -3 3882.06 581.302 7
-4 6 -4 170.786 84.921 4
4 -6 4 298.421 131.113 2
-4 6 -4 231.565 148.452 7
4 -6 5 1423.34 247.068 2
-4 6 -5 1729.49 399.72 7
-4 6 -6 -58.8959 139.762 7
-4 6 -7 33.2285 104.327 7
-4 6 -8 322.008 162.551 7
-4 5 11 247.091 130.459 5
4 -5 -11 536.649 177.812 2
4 -5 -10 297.429 176.248 2
-4 5 10 148.937 85.7248 5
-4 5 9 3468.94 461.042 5
4 -5 -9 3781.48 451.675 2
-4 5 8 3238.29 434.732 5
4 -5 -8 3299.94 412.307 2
4 -5 -7 490.271 171.378 2
4 -5 -6 3249.34 400.934 2
4 -5 -5 41036.2 1381.56 2
-4 5 5 37008.1 1040.4 7
4 -5 -4 22599.7 1013.05 2
-4 5 4 20792.8 822.92 7
4 -5 -3 2799.57 361.213 2
4 -5 -2 2815.62 355.308 2
4 -5 -1 29042.9 1111.68 2
-4 5 1 32738.1 1260.96 7
4 -5 0 1529 253.326 2
-4 5 0 1735.45 307.952 7
4 -5 1 13887.1 748.057 2
-4 5 -1 17794 1057.06 7
4 -5 2 566.75 140.474 2
-4 5 -2 748.072 217.267 7
4 -5 3 1703.07 251.618 2
-4 5 -3 1622.47 359.417 7
4 -5 4 1080.11 197.287 2
-4 5 -4 1309.54 341.6 7
-4 5 -5 1231.41 335.09 7
4 -5 5 1024.15 184.448 2
-4 5 -6 180.709 136.43 7
-4 5 -7 771.389 275.606 7
-4 5 -8 5.35404 98.8286 7
-4 5 -9 -79.2965 139.873 7
-4 4 11 3405.86 469.115 5
4 -4 -11 3479.06 455.682 2
-4 4 10 1283.67 286.786 5
4 -4 -10 1592.3 301.822 2
4 -4 -9 1147.97 247.815 2
-4 4 9 1103.02 264.087 5
-4 4 8 4918.68 518.676 5
4 -4 -8 4466.72 462.993 2
-4 4 7 4256.95 492.061 5
4 -4 -7 3870.73 417.646 2
4 -4 -6 179.014 102.78 2
-4 4 6 -57.0653 61.5736 5
4 -4 -5 3846.15 406.216 2
4 -4 -4 4788.09 440.393 2
4 -4 -3 12197 692.769 2
4 -4 -2 153.319 83.6822 2
4 -4 -1 348.276 113.717 2
-4 4 0 4487.83 452.579 7
4 -4 0 4119.9 376.39 2
4 -4 1 12673.7 654.137 2
-4 4 -1 15336.2 915.276 7
4 -4 2 6547.72 457.449 2
-4 4 -2 8269.11 712.072 7
-4 4 -3 314.392 85.6865 3
4 -4 3 234.964 82.2405 2
-4 4 -3 277.043 156.731 7
-4 4 -4 2518.33 251.267 3
-4 4 -4 2853.92 471.807 7
4 -4 4 2338.32 258.013 2
4 -4 5 149.431 69.6821 2
-4 4 -5 152.388 113.902 7
-4 4 -5 214.457 88.3574 3
-4 4 -6 1452.16 241.25 3
-4 4 -6 2024.62 433.603 7
-4 4 -7 2.38187 44.0496 3
-4 4 -7 279.199 154.87 7
-4 4 -8 922.066 309.74 7
-4 4 -9 530.529 235.158 7
-4 3 12 294.885 141.144 5
4 -3 -12 -27.7943 99.1184 8
-4 3 11 348.403 129.976 5
4 -3 -11 450.694 136.065 2
-4 3 10 1290.83 270.613 5
4 -3 -10 1464.98 282.495 2
-4 3 9 980.271 232.228 5
4 -3 -9 1078.05 254.186 2
-4 3 8 275.448 135.63 5
4 -3 -8 296.003 125.388 2
-4 3 7 34528.3 1324.44 5
4 -3 -7 35219.2 1244.32 2
-4 3 6 61859.1 1695.28 5
4 -3 -6 63380.8 1595.91 2
-4 3 5 5985.35 520.176 5
4 -3 -5 5132.6 431.261 2
4 -3 -4 3535.84 353.7 2
4 -3 -3 47696.8 1322.57 2
-4 3 2 6023.85 333.135 1
4 -3 -2 5625.75 446.758 2
-4 3 1 7391.35 303.152 1
4 -3 -1 8144.21 517.917 2
4 -3 0 6419.44 440.326 2
4 -3 1 2310.63 256.335 2
-4 3 -2 9035.42 432.385 3
4 -3 2 10481.1 523.011 2
-4 3 -3 -9.92719 48.1473 7
4 -3 3 73.7503 52.9426 2
-4 3 -3 4.82838 30.7487 3
4 -3 4 3726.26 278.156 2
-4 3 -4 4296.83 355.845 3
-4 3 -4 4680.13 567.434 7
-4 3 -5 537.995 142.46 3
-4 3 -5 751.446 244.41 7
4 -3 5 576.698 108.278 2
-4 3 -6 5190.53 475.159 3
-4 3 -6 6523.8 752.644 7
-4 3 -7 75.5327 79.9754 3
-4 3 -7 -38.3455 103.337 7
-4 3 -8 200.882 108.012 3
-4 3 -8 157.48 92.2606 7
-4 3 -9 158.894 125.456 3
-4 3 -9 76.0706 131.59 7
-4 3 -10 -16.455 66.7092 3
-4 3 -10 67.6378 146.988 7
-4 2 12 840.213 250.567 5
4 -2 -12 814.902 274.091 8
-4 2 11 401.021 143.25 5
4 -2 -11 576.207 193.673 2
-4 2 10 153.357 78.786 5
4 -2 -10 123.703 84.0035 2
-4 2 9 2036.92 321.213 5
4 -2 -9 2008.44 279.362 2
-4 2 8 691.295 174.572 5
4 -2 -8 1185.38 235.646 2
-4 2 7 12298.5 736.909 5
4 -2 -7 13114.9 748.605 2
-4 2 6 399.57 147.447 5
4 -2 -6 432.074 137.63 2
-4 2 5 32739.9 1149.32 5
4 -2 -5 33341.1 1107.77 2
-4 2 4 12166.2 588.504 1
4 -2 -4 12507.9 656.115 2
4 -2 -3 3948.62 356.796 2
-4 2 3 3809.63 292.135 1
4 -2 -2 61706.4 1359.28 2
4 -2 -1 1752.03 224.884 2
4 -2 0 225.394 79.0706 2
-4 2 -1 18730.6 657.714 3
4 -2 1 18599.2 679.987 2
-4 2 -2 7740.95 443.152 3
4 -2 2 8222.2 426.013 2
-4 2 -3 1717.53 301.02 7
-4 2 -3 1447.2 199.832 3
4 -2 3 1439.81 168.099 2
-4 2 -3 1282.28 218.35 6
-4 2 -4 522.06 175.6 7
-4 2 -4 518.97 141.979 6
-4 2 -4 576.006 149.998 3
4 -2 4 365.168 71.9646 2
4 -2 5 4963.39 229.632 2
-4 2 -5 4898.86 449.266 6
-4 2 -6 158.182 101.581 6
-4 2 -6 -114.103 96.5196 3
-4 2 -6 154.598 113.115 7
-4 2 -7 3863.5 453.546 3
-4 2 -7 3814.35 564.265 7
-4 2 -7 2464.99 350.59 6
-4 2 -8 152.377 131.447 6
-4 2 -8 192.867 125.911 3
-4 2 -8 408.276 185.273 7
-4 2 -9 98.4875 93.1909 6
-4 2 -9 98.3039 110.665 3
-4 2 -9 -98.2765 113.092 7
-4 2 -10 -130.132 156.847 3
-4 2 -10 -70.2561 79.2826 7
-4 1 12 405.506 155.97 5
-4 1 11 -0.4328 72.4413 5
4 -1 -11 -49.4784 56.6094 2
-4 1 10 507.884 162.343 5
4 -1 -10 305.52 111.095 2
-4 1 9 2579.44 350.481 5
4 -1 -9 2359.62 321.873 2
-4 1 8 23273.3 1010.53 5
4 -1 -8 21797.3 913.118 2
-4 1 7 19407.9 890.693 5
4 -1 -7 17471.7 783.566 2
-4 1 6 763.906 169.926 5
4 -1 -6 792.206 187.877 2
-4 1 5 3811.37 372.155 5
-4 1 5 3589.48 349.593 1
4 -1 -5 3233.51 330.96 2
-4 1 4 48954.6 1142.04 1
4 -1 -4 46953.2 1194.26 2
4 -1 -3 6738.34 445.767 2
-4 1 3 6950.33 399.432 6
4 -1 -2 26495.9 849.969 2
-4 1 2 25526.7 752.643 6
4 -1 -1 346.364 93.1158 2
4 -1 0 1192.37 173.348 2
-4 1 -1 13573.5 609.689 3
4 -1 1 10996.1 465.341 2
-4 1 -2 11948.8 582.352 3
4 -1 2 11840.4 470.839 2
-4 1 -3 84.1379 69.501 6
-4 1 -3 96.5947 76.2797 3
4 -1 3 59.8179 31.9391 2
-4 1 -3 -5.87315 85.5044 7
-4 1 -4 401.897 134.67 6
4 -1 4 474.889 75.6941 2
-4 1 -4 438.431 130.878 3
-4 1 -4 517.419 166.424 7
-4 1 -5 1570.27 263.154 6
-4 1 -5 1737.37 277.205 3
-4 1 -5 1995.08 343.93 7
-4 1 -6 6410.67 579.679 3
-4 1 -6 6567.26 687.347 7
-4 1 -6 5332.73 500.545 6
-4 1 -7 2702.78 394.603 3
-4 1 -7 2531.17 456.006 7
-4 1 -7 1971.67 301.705 6
-4 1 -8 212.245 80.2642 6
-4 1 -8 442.116 175.257 3
-4 1 -8 188.087 117.883 7
-4 1 -9 374.461 140.622 6
-4 1 -9 575.523 213.405 3
-4 1 -9 391.479 171.157 7
-4 1 -10 648.761 288.324 3
-4 1 -10 597.086 244.233 7
-4 0 13 108.384 99.8581 5
-4 0 12 458.98 193.413 5
-4 0 11 -68.9626 86.1381 5
4 0 -11 -52.9983 72.2174 2
-4 0 10 -128.639 103.951 5
4 0 -10 -46.1465 45.2682 2
-4 0 9 2012.88 321.446 5
4 0 -9 1690.55 261.412 2
-4 0 8 2423.76 321.39 5
4 0 -8 2575.32 316.421 2
-4 0 7 9295.22 590.055 5
4 0 -7 9050.6 570.567 2
-4 0 6 7448.2 500.294 5
-4 0 6 8782.41 607.448 1
4 0 -6 7383.83 499.7 2
-4 0 5 27882 939.635 5
-4 0 5 29618.3 993.513 1
-4 0 4 11291.8 571.74 5
4 0 -4 10840.7 566.26 2
-4 0 4 9962.2 414.157 6
-4 0 4 11543.2 570.943 1
4 0 -3 6186.52 414.565 2
-4 0 3 5781.96 340.744 6
4 0 -2 7970.92 452.278 2
-4 0 2 8043.73 436.141 6
4 0 -1 234.965 86.2717 2
-4 0 0 7380.93 468.805 3
4 0 0 5936.46 365.081 2
-4 0 -1 5246.41 407.009 3
4 0 1 4634.52 307.597 2
-4 0 -2 746.791 143.409 3
4 0 2 931.639 128.402 2
-4 0 -3 1299.74 212.012 3
4 0 3 1433.45 160.068 2
-4 0 -3 1239.55 218.594 6
-4 0 -4 10804.4 677.168 3
-4 0 -4 10723.6 754.444 7
4 0 4 8622.36 337.458 4
-4 0 -4 9508.01 622.679 6
-4 0 -5 71.9103 78.9632 6
-4 0 -5 -59.4122 87.9597 7
-4 0 -5 -101.36 70.673 3
-4 0 -6 11807.6 802.987 3
-4 0 -6 10119.1 692.284 6
-4 0 -6 12849.5 924.214 7
-4 0 -7 169.819 119.248 6
-4 0 -7 27.1399 62.2299 3
-4 0 -7 47.9676 87.5526 7
-4 0 -8 50.2054 82.8267 6
-4 0 -8 26.7446 92.9763 3
-4 0 -8 -177.27 157.511 7
-4 0 -9 -0.73443 64.8373 6
-4 0 -9 -67.3647 127.652 3
-4 0 -9 37.872 65.4963 7
-4 0 -10 670.041 293.324 3
-4 0 -10 751.033 267.393 7
-4 -1 12 117.396 123.285 5
4 1 -12 -129.522 119.465 7
-4 -1 11 586.425 196.778 5
4 1 -11 616.283 168.855 2
4 1 -11 644.858 208.744 7
-4 -1 10 6269 598.706 5
4 1 -10 5747.97 504.871 2
4 1 -10 6264.3 616.694 7
-4 -1 9 17030.3 931.582 5
4 1 -9 14869.5 767.209 2
4 1 -9 16670 962.581 7
-4 -1 8 264.688 119.645 5
4 1 -8 181.548 87.0069 2
-4 -1 7 1733.47 254.063 5
4 1 -7 1450.19 223.616 2
-4 -1 7 1922.14 303.883 1
-4 -1 6 499.834 72.5063 6
-4 -1 6 694.826 146.806 5
4 1 -6 907.704 170.509 2
-4 -1 6 996.361 211.254 1
-4 -1 5 4700.94 355.286 5
4 1 -5 4595.04 377.418 2
-4 -1 5 5186.18 433.979 1
-4 -1 5 4356.14 260.26 6
4 1 -4 23314.5 823.11 2
-4 -1 4 24857.2 778.596 5
-4 -1 4 22312.5 669.18 6
-4 -1 3 7047.7 377.102 5
4 1 -3 7036.81 436.814 2
-4 -1 3 6974.12 394.355 6
4 1 -2 44482.9 1097.56 2
-4 -1 2 49269.3 1116.51 6
4 1 -1 22134.3 748.535 2
-4 -1 0 12406 655.384 3
4 1 0 10659 518.48 2
-4 -1 -1 29699.7 1023.9 3
4 1 1 27327.6 823.323 2
4 1 2 977.977 155.947 4
-4 -1 -2 1329.14 220.176 3
4 1 2 1263.49 173.281 2
-4 -1 -3 1047.52 199.396 3
4 1 3 1036.76 151.258 4
-4 -1 -3 1124.98 215.086 6
-4 -1 -4 615.664 168.053 3
4 1 4 735.416 118.384 4
-4 -1 -4 726.065 175.662 6
-4 -1 -5 485.74 163.476 3
-4 -1 -5 428.412 158.244 7
-4 -1 -5 292.557 117.324 6
-4 -1 -6 3415.38 437.797 3
-4 -1 -6 3963.86 487.309 7
-4 -1 -6 3474.25 407.393 6
-4 -1 -7 828.568 231.58 3
-4 -1 -7 788.487 243.588 7
-4 -1 -7 806.306 235.253 6
-4 -1 -8 1548.48 319.521 6
-4 -1 -8 2121.87 378.862 3
-4 -1 -8 1415.4 326.372 7
-4 -1 -9 678.194 207.658 6
-4 -1 -9 898.983 274.3 3
-4 -1 -9 1041.95 303.258 7
-4 -1 -10 126.91 123.055 6
4 1 10 -128.3 147.623 5
-4 -1 -10 -174.511 234.438 3
-4 -2 12 -107.41 67.6888 5
4 2 -12 -140.558 130.958 7
4 2 -11 1533.33 284.586 2
-4 -2 11 1512.4 304.338 5
4 2 -11 1857.71 373.418 7
4 2 -10 1212.79 237.231 2
-4 -2 10 1176.43 245.735 5
4 2 -10 1413.62 309.707 7
4 2 -9 990.875 212.743 2
-4 -2 9 907.827 205.919 5
4 2 -9 1172.97 265.133 7
-4 -2 8 3681.25 381.607 5
4 2 -8 3675.9 386.778 2
4 2 -8 3980.74 469.658 7
-4 -2 7 145.215 42.9303 6
-4 -2 7 107.223 57.212 1
-4 -2 7 246.23 105.991 5
4 2 -7 325.531 124.806 2
4 2 -7 304.403 136.761 7
-4 -2 6 610.036 171.555 1
-4 -2 6 583.114 134.981 5
4 2 -6 544.846 147.62 2
-4 -2 6 637.683 102.555 6
-4 -2 5 11034.9 526.169 5
4 2 -5 10978.5 622.778 2
-4 -2 5 11499.6 494.743 6
-4 -2 4 4730.61 307.59 5
4 2 -4 5159.05 411.295 2
-4 -2 4 4862.47 331.39 6
4 2 -3 92.2958 65.7329 2
-4 -2 3 131.982 41.7825 5
-4 -2 3 131.538 71.2 6
4 2 -2 4734.79 387.659 2
4 2 -1 7940.62 498.248 2
4 2 -1 5343.33 217.587 5
-4 -2 0 1900.47 269.19 3
4 2 0 1775.58 231.88 2
4 2 0 1632.86 226.981 4
-4 -2 -1 929.016 201.187 3
4 2 1 942.463 170.004 4
-4 -2 -2 9350.58 621.677 3
4 2 2 8363.7 506.972 4
-4 -2 -3 3902.81 417.336 3
4 2 3 3220.88 309.049 4
-4 -2 -3 3416.69 372.247 6
-4 -2 -4 3719.99 417.933 3
4 2 4 3917.23 334.603 4
-4 -2 -4 4053.32 428.572 6
-4 -2 -5 803.227 215.851 3
4 2 5 856.188 142.234 4
-4 -2 -5 894.747 223.618 7
-4 -2 -5 1142.52 252.493 6
-4 -2 -6 47.1209 83.7051 7
-4 -2 -6 94.8282 88.5884 3
-4 -2 -6 288.634 143.607 6
-4 -2 -7 155.444 53.715 7
-4 -2 -7 334.702 174.881 3
-4 -2 -7 281.356 124.777 6
4 2 8 124.235 110.813 5
-4 -2 -8 159.988 125.621 3
-4 -2 -8 88.5108 69.2166 7
-4 -2 -8 -102.907 166.57 6
4 2 9 984.185 229.383 5
-4 -2 -9 1161.16 369.954 3
-4 -2 -9 1673.11 366.063 6
-4 -3 12 143.837 121.777 5
4 3 -12 3.31775 59.3441 4
-4 -3 11 4127.59 510.528 5
4 3 -11 3880.1 534.117 7
4 3 -11 2982.76 425.699 4
-4 -3 10 2356.05 357.978 5
4 3 -10 1806.14 329.571 4
4 3 -10 2256.83 396.621 7
-4 -3 9 748.716 197.873 5
4 3 -9 433.701 158.797 7
4 3 -9 683.716 190.036 4
-4 -3 8 929.993 195.03 5
4 3 -8 903.042 232.241 7
4 3 -8 848.031 197.545 2
-4 -3 8 973.546 254.122 1
4 3 -8 972.097 219.088 4
-4 -3 7 472.554 129.494 5
-4 -3 7 565.128 166.299 1
4 3 -7 562.193 158.647 2
4 3 -7 479.82 167.28 7
-4 -3 7 494.195 95.4487 6
-4 -3 6 13613.5 631.8 5
4 3 -6 13861.9 762.678 2
-4 -3 6 15907.3 861.374 1
-4 -3 5 2811.8 258.453 5
4 3 -5 2877.2 334.62 2
-4 -3 4 15340.1 519.677 5
4 3 -4 16346 798.309 2
4 3 -4 15856 811.131 4
-4 -3 3 11451.5 366.561 5
4 3 -3 13812.9 723.178 2
4 3 -3 13434.5 729.381 4
4 3 -2 -25.8943 59.8274 4
4 3 -1 34052.7 1171.66 4
-4 -3 0 6556.38 544.115 3
4 3 0 5748.81 482.096 4
-4 -3 -1 1395.03 256.341 3
4 3 1 631.56 52.1291 5
4 3 1 1225.2 210.071 4
4 3 2 800.006 100.701 5
-4 -3 -2 761.471 191.944 3
4 3 2 852.815 181.979 4
4 3 3 1063.08 135.326 5
-4 -3 -3 1211.66 252.07 3
4 3 3 1361.73 228.276 4
4 3 4 2598.13 243.651 5
-4 -3 -4 3152.29 413.029 3
4 3 4 3329.33 346.078 4
-4 -3 -4 3226.79 396.359 6
-4 -3 -5 599.639 182.217 3
-4 -3 -5 518.338 164.03 7
4 3 5 593.451 138.802 4
-4 -3 -5 627.065 185.397 6
4 3 6 3336.56 338.354 5
-4 -3 -6 4862.54 565.352 3
-4 -3 -6 3696.56 431.778 7
-4 -3 -6 4365.53 502.98 6
4 3 7 1049.61 210.406 5
-4 -3 -7 1575.24 339.425 3
-4 -3 -7 1550.54 362.057 6
4 3 8 -61.2286 103.507 5
-4 -3 -8 -142.606 151.454 3
-4 -3 -8 -42.5601 141.083 6
4 3 9 244.077 119.053 5
-4 -3 -9 186.629 236.365 3
-4 -3 -9 594.351 255.262 6
-4 -4 12 316.682 165.403 5
4 4 -12 78.1573 83.9249 7
4 4 -12 64.6035 82.5125 4
-4 -4 11 155.216 104.366 5
4 4 -11 13.1688 95.1697 7
4 4 -11 -21.7927 78.6806 4
-4 -4 10 520.08 178.91 5
4 4 -10 347.633 154.24 7
4 4 -10 543.136 180.066 4
-4 -4 9 -18.3612 56.8452 5
4 4 -9 -94.0422 115.423 7
4 4 -9 -12.4294 51.4372 4
-4 -4 8 354.625 141.557 1
-4 -4 8 490.979 148.981 5
4 4 -8 578.362 197.31 7
4 4 -8 460.005 148.865 4
-4 -4 7 1.93199 52.3414 5
-4 -4 7 -61.1651 108.468 1
4 4 -7 55.0695 66.3173 7
4 4 -7 -74.5721 68.3823 4
-4 -4 6 12559.7 615.483 5
4 4 -6 12937.3 824.996 4
-4 -4 6 14826.1 876.803 1
-4 -4 5 926.108 143.252 5
4 4 -5 1248.98 261.049 7
4 4 -5 1170.19 242.667 4
-4 -4 4 4508.12 271.648 5
4 4 -4 5026.44 499.038 4
-4 -4 3 250.644 47.3286 5
4 4 -3 478.831 169.99 4
4 4 -2 1476.01 267.828 4
4 4 -1 389.774 149.156 4
-4 -4 0 200.993 122.123 3
4 4 0 239.702 113.14 4
-4 -4 -1 1472.83 269.791 3
4 4 1 1570.6 281.813 4
-4 -4 -2 5974.67 541.29 3
4 4 2 6159.56 560.421 4
4 4 3 933.416 111.685 5
-4 -4 -3 1227.67 258.213 3
4 4 3 1569.6 276.035 4
-4 -4 -4 8907.24 708.059 3
4 4 4 9394.79 663.575 4
4 4 5 317.297 116.526 4
-4 -4 -5 214.797 147.014 3
-4 -4 -6 -36.7724 90.6984 3
-4 -4 -6 197.657 102.199 6
-4 -4 -7 321.836 184.46 3
-4 -4 -7 517.357 215.88 6
-4 -4 -8 2.66422 149.781 3
-4 -4 -8 98.5014 189.59 6
-4 -5 11 -208.446 151.711 5
4 5 -11 -329.497 189.701 7
4 5 -11 26.7624 42.9253 4
-4 -5 10 255.375 128.449 5
4 5 -10 279.513 154.276 7
4 5 -10 12.6893 58.1961 4
-4 -5 9 138.291 83.1383 1
-4 -5 9 21.3818 51.0237 5
4 5 -9 136.109 146.592 7
4 5 -9 -12.9658 72.7912 4
-4 -5 8 68.8479 77.6489 1
-4 -5 8 251.783 121.182 5
4 5 -8 385.241 176.909 7
4 5 -8 133.947 64.4924 4
-4 -5 7 5592.55 449.905 5
4 5 -7 5148.75 554.353 4
-4 -5 7 6491.33 649.922 1
4 5 -7 6810.05 672.844 7
-4 -5 6 223.577 126.245 1
-4 -5 6 129.785 62.3489 5
4 5 -6 17.284 72.6847 7
4 5 -6 108.081 99.0253 4
-4 -5 5 6087.67 374.936 5
4 5 -5 6988.01 628.041 4
-4 -5 4 -2.87352 24.3871 5
4 5 -4 47.7578 49.1637 4
4 5 -3 6687.92 600.508 4
4 5 -2 10838.8 799.395 4
4 5 -1 2748.39 407.722 4
-4 -5 0 42.3966 65.7613 3
4 5 0 96.7529 59.9947 4
-4 -5 -1 2743.43 391.442 3
4 5 1 2633.99 400.153 4
-4 -5 -2 58.7051 66.126 3
4 5 2 122.977 85.2682 4
-4 -5 -3 1975.3 329.522 3
4 5 3 1775.07 320.316 4
-4 -5 -4 833.228 227.14 3
4 5 4 731.746 191.808 4
-4 -5 -5 1774.96 338.097 3
4 5 5 1889.41 324.214 4
-4 -5 -6 -79.3997 62.6485 3
-4 -5 -7 678.216 252.816 3
-4 -5 -7 524.157 177.106 6
-4 -5 -8 49.6283 96.7078 3
-4 -5 -8 -198.15 147.733 6
-4 -6 10 26.9949 54.5275 5
4 6 -10 67.6475 81.5577 4
-4 -6 9 16.0471 75.6494 1
4 6 -9 212.747 121.641 7
4 6 -9 12.2607 82.0004 4
-4 -6 8 772.478 252.686 1
4 6 -8 632.965 233.896 7
4 6 -8 460.472 172.471 4
-4 -6 7 446.248 171.044 1
4 6 -7 297.942 166.282 4
4 6 -7 442.113 191.877 7
4 6 -6 73.4586 100.522 7
4 6 -6 71.8957 71.679 4
4 6 -5 540.114 207.352 7
4 6 -5 332.556 178.091 4
4 6 -4 371.715 163.447 4
4 6 -3 1246.97 292.239 4
4 6 -2 213.041 75.9896 4
4 6 -1 3526.55 511.421 4
4 6 0 2958.1 490.598 4
-4 -6 -1 1151.75 255.114 3
4 6 1 1165.88 317.644 4
-4 -6 -2 5433.99 562.04 3
4 6 2 5008.9 602.909 4
-4 -6 -3 1472.23 303.914 3
4 6 3 1591.7 344.498 4
-4 -6 -4 14.6625 65.0047 3
4 6 4 136.448 105.849 4
-4 -6 -5 -67.8142 70.1226 3
4 6 5 -49.4705 67.9955 4
-4 -6 -6 180.309 159.879 3
-4 -6 -7 -35.2022 113.487 3
-4 -7 9 -145.066 145.828 1
4 7 -9 112.34 95.7564 4
4 7 -9 255.545 147.385 7
-4 -7 8 171.238 143.613 1
4 7 -8 156.166 122.765 4
4 7 -8 261.57 161.32 7
4 7 -7 202.415 145.952 4
4 7 -7 514.487 232.275 7
-4 -7 7 631.944 232.718 1
4 7 -6 226.719 162.822 4
4 7 -6 115.213 109.726 7
-4 -7 6 481.2 216.573 1
4 7 -5 164.991 156.64 4
4 7 -5 235.651 105.399 7
4 7 -4 3734.67 580.825 4
4 7 -3 216.944 131.231 4
4 7 -2 1990.45 417.082 4
4 7 -1 37.0439 80.1116 4
4 7 0 673.162 209.687 4
-4 -7 -1 1001.64 258.544 3
4 7 1 995.189 308.204 4
-4 -7 -2 2411.19 402.171 3
4 7 2 2253.15 437.327 4
-4 -7 -3 288.557 157.743 3
4 7 3 199.701 137.967 4
-4 -7 -4 19.0275 76.4392 3
4 7 4 -41.2629 63.882 4
-4 -7 -5 95.8266 116.189 3
4 7 5 120.008 138.532 4
4 8 -7 -51.2839 71.6644 4
4 8 -7 43.586 91.98 7
-4 -8 7 8.29464 93.7488 1
-4 -8 6 14.3952 118.468 1
4 8 -6 56.2185 115.244 4
4 8 -6 -76.8692 119.41 7
4 8 -5 399.947 200.081 4
4 8 -5 680.184 232.688 7
4 8 -4 518.768 256.839 4
4 8 -3 233.583 151.081 4
4 8 -2 -17.2906 91.2186 4
4 8 -1 309.424 150.203 4
4 8 0 1090.61 343.691 4
4 8 1 3338.22 574.071 4
-4 -8 -2 -23.3306 78.9271 3
4 8 2 24.0046 110.821 4
-4 -8 -3 173.171 141.272 3
4 8 3 66.6105 122.608 4
4 9 -4 33.6742 125.646 4
4 9 -3 89.6304 130.955 4
4 9 -2 -208.364 166.106 4
4 9 -1 482.19 296.593 4
4 9 0 3890.53 738.914 4
5 -9 -4 215.34 179.971 2
5 -9 -3 20.9463 67.8687 2
5 -9 -2 190.428 173.441 2
5 -9 -1 168.578 146.341 2
-5 9 0 -150.978 138.165 7
5 -9 0 42.9236 83.1175 2
-5 9 -1 477.414 217.944 7
5 -9 1 817.484 261.694 2
5 -9 2 -86.7596 127.252 2
-5 9 -2 -81.123 138.885 7
5 -8 -7 -91.1463 114.778 2
5 -8 -6 111.892 138.217 2
5 -8 -5 149.364 103.305 2
5 -8 -4 -31.2909 66.0905 2
5 -8 -3 600.429 203.279 2
5 -8 -2 -266.664 161.542 2
5 -8 -1 923.157 250.087 2
-5 8 1 1166.97 310.206 7
5 -8 0 228.895 147.056 2
-5 8 0 331.776 180.916 7
5 -8 1 99.8741 86.9803 2
-5 8 -1 181.86 127.792 7
5 -8 2 155.925 124.873 2
-5 8 -2 387.121 208.993 7
5 -8 3 124.164 111.384 2
-5 8 -3 -102.616 118.754 7
5 -8 4 -39.4647 82.792 2
-5 8 -4 86.4803 92.3931 7
5 -7 -8 3135.23 468.596 2
5 -7 -7 466.898 210.059 2
5 -7 -6 2423.98 396.115 2
5 -7 -5 -58.3031 113.142 2
5 -7 -4 155.513 106.695 2
5 -7 -3 1536.46 308.981 2
-5 7 3 1602.13 301.724 7
5 -7 -2 48.9128 59.9547 2
-5 7 2 44.8007 70.5676 7
-5 7 1 176.774 118.664 7
5 -7 -1 199.073 116.685 2
5 -7 0 80.0739 92.3831 2
-5 7 0 66.0283 59.3198 7
5 -7 1 187.28 114.346 2
-5 7 -1 -175.136 181.739 7
5 -7 2 569.076 180.835 2
-5 7 -2 693.612 254.77 7
5 -7 3 -34.4853 76.7113 2
-5 7 -3 -71.1259 73.4828 7
5 -7 4 183.215 100.95 2
-5 7 -4 61.1688 134.897 7
-5 7 -5 -164.617 176.223 7
-5 7 -6 -120.291 136.009 7
5 -6 -9 2091.57 378.976 2
5 -6 -8 478.415 171.721 2
5 -6 -7 247.928 143.037 2
5 -6 -6 -29.435 84.4448 2
5 -6 -5 290.311 147.167 2
5 -6 -4 465.512 182.308 2
-5 6 4 499.86 140.234 7
5 -6 -3 5018.27 515.167 2
-5 6 3 4866.79 508.663 7
5 -6 -2 841.686 210.523 2
-5 6 2 914.026 231.625 7
5 -6 -1 370.361 145.682 2
-5 6 1 314.425 153.651 7
-5 6 0 55.3308 61.6928 7
5 -6 0 -39.846 57.3537 2
5 -6 1 1443.09 273.953 2
-5 6 -1 1160.84 298.701 7
5 -6 2 186.685 85.336 2
-5 6 -2 319.812 186.762 7
5 -6 3 128.61 103.182 2
-5 6 -3 513.677 230.308 7
-5 6 -4 7390.39 883.469 7
5 -6 4 5568.34 483.055 2
-5 6 -5 2019.38 476.646 7
-5 6 -6 -36.7285 155.689 7
-5 6 -7 -370.466 323.162 7
5 -5 -10 1278.02 279.665 2
-5 5 10 1177.38 299.94 5
5 -5 -9 2628.23 412.164 2
-5 5 9 2646.08 422.023 5
5 -5 -8 -13.4553 63.7274 2
5 -5 -7 7850.25 662.012 2
5 -5 -6 151.375 103.957 2
5 -5 -5 13493.3 842.653 2
5 -5 -4 9996.47 716.885 2
5 -5 -3 -18.2522 68.7856 2
-5 5 3 236.56 101.163 7
5 -5 -2 11.3649 50.674 2
-5 5 2 53.6765 46.6083 7
-5 5 1 1847.51 312.503 7
5 -5 -1 1979.81 297.723 2
5 -5 0 1246.33 241.943 2
-5 5 0 962.467 242.673 7
5 -5 1 398.825 125.267 2
-5 5 -1 420.47 168.047 7
5 -5 2 87.8545 81.2613 2
-5 5 -2 71.9333 105.21 7
5 -5 3 1019.45 201.593 2
-5 5 -3 1334.4 370.662 7
5 -5 4 1013.06 199.635 2
-5 5 -4 941.345 302.07 7
-5 5 -5 206.869 188.305 7
-5 5 -6 1057.11 348.666 7
-5 5 -7 179.92 167.422 7
-5 5 -8 631.743 283.504 7
-5 4 11 4258.29 557.607 5
5 -4 -11 5357.46 604.326 2
-5 4 10 383.869 173.969 5
5 -4 -10 510.305 217.711 2
-5 4 9 290.617 128.255 5
5 -4 -9 489.726 184.598 2
-5 4 8 4368.95 509.847 5
5 -4 -8 4822.13 512.519 2
5 -4 -7 1273.89 264.771 2
5 -4 -6 5790.46 518.759 2
5 -4 -5 1561.99 262.885 2
5 -4 -4 17359 902.825 2
5 -4 -3 304.982 108.819 2
5 -4 -2 8998.03 633.734 2
-5 4 1 2075.89 177.3 1
5 -4 -1 2340.16 323.837 2
-5 4 1 2168.94 329.507 7
5 -4 0 1230.05 220.293 2
-5 4 0 1116.29 245.631 7
-5 4 -1 6226.9 622.319 7
5 -4 1 5678.69 465.265 2
5 -4 2 1497.43 227.248 2
-5 4 -2 1620.03 341.33 7
-5 4 -3 8895.46 479.907 3
5 -4 3 8738.76 527.901 2
5 -4 4 309.015 110.363 2
-5 4 -4 199.937 71.6106 3
-5 4 -4 248.185 147.449 7
-5 4 -5 -126.917 102.387 3
-5 4 -5 -128.321 144.823 7
-5 4 -6 855.982 315.225 7
-5 4 -7 13.473 130.632 7
-5 4 -8 380.898 187.909 7
-5 3 12 139.403 101.757 5
5 -3 -12 266.271 156.175 2
-5 3 11 2750.82 420.937 5
5 -3 -11 3203.67 452.221 2
-5 3 10 1556.07 312.009 5
5 -3 -10 1939.52 332.787 2
-5 3 9 2676.2 401.421 5
5 -3 -9 3113.07 414.146 2
-5 3 8 1369.05 270.592 5
5 -3 -8 1346.63 257.828 2
-5 3 7 11912 803.514 5
5 -3 -7 12054.6 791.157 2
5 -3 -6 40777 1398.85 2
5 -3 -5 7303.14 577.765 2
5 -3 -4 37.74 97.7401 2
-5 3 3 3762.55 313.67 1
5 -3 -3 4183.77 419.653 2
-5 3 2 5849.96 343.648 1
5 -3 -2 7014.61 527.987 2
5 -3 -1 30652 1069.15 2
5 -3 0 6383.07 479.384 2
-5 3 -1 7588.46 666.17 7
5 -3 1 7341.6 494.79 2
-5 3 -2 2109.79 370.979 7
5 -3 2 2244.85 264.444 2
-5 3 -2 1972.54 235.369 3
-5 3 -3 147.063 107.445 6
-5 3 -3 101.779 53.7685 3
-5 3 -3 289.198 160.127 7
5 -3 3 125.243 70.4074 2
-5 3 -4 1900.21 256.704 3
-5 3 -4 1404.24 260.988 6
5 -3 4 1872.29 212.959 2
-5 3 -5 31.9 61.1145 6
-5 3 -5 -9.51572 70.5364 3
-5 3 -5 53.2042 81.4479 7
-5 3 -6 93.4475 53.9336 3
-5 3 -6 155.037 186.217 7
-5 3 -7 422.201 157.845 3
-5 3 -7 55.7886 77.8767 7
-5 3 -8 1532.4 319.662 3
-5 3 -8 1685.47 443.686 7
-5 3 -9 300.628 162.347 3
-5 3 -9 -89.9278 107.93 7
-5 2 12 2713.51 449.61 5
5 -2 -12 3105.52 433.961 2
-5 2 11 624.395 214.064 5
5 -2 -11 432.08 151.5 2
-5 2 10 4636.93 535.568 5
5 -2 -10 4979.33 525.465 2
-5 2 9 1275.45 269.5 5
5 -2 -9 940.602 227.899 2
-5 2 8 -11.057 77.2306 5
5 -2 -8 -22.954 90.3457 2
-5 2 7 718.525 194.856 5
5 -2 -7 813.823 206.687 2
-5 2 6 11770.3 744.07 5
5 -2 -6 11767.3 730.386 2
-5 2 5 2228.06 283.27 1
5 -2 -5 2288.85 316.509 2
-5 2 4 6612.24 454.546 1
5 -2 -4 6780.1 534.101 2
-5 2 3 14728.6 609.49 1
5 -2 -3 17247 818.461 2
-5 2 2 687.742 153.498 6
5 -2 -2 645.674 163.167 2
5 -2 -1 94669.5 1816.22 2
-5 2 1 94473.7 1875.96 6
5 -2 0 6086.15 452.264 2
5 -2 1 15548.2 681.696 2
-5 2 -2 3023.21 320.156 3
-5 2 -2 3540.39 462.359 7
5 -2 2 3413.19 286.184 2
-5 2 -2 2733.59 322.262 6
-5 2 -3 543.876 137.279 6
-5 2 -3 826.212 232.513 7
-5 2 -3 542.072 144.633 3
5 -2 3 467.57 106.45 2
-5 2 -4 3039.37 347.521 3
5 -2 4 2979.82 241.041 2
-5 2 -4 3560.6 507.408 7
-5 2 -4 2387.58 324.486 6
-5 2 -5 92.1702 118.018 7
-5 2 -5 140.73 79.4577 6
-5 2 -5 173.881 97.5776 3
-5 2 -6 1013.7 235.634 6
-5 2 -6 1592.41 285.695 3
-5 2 -6 1565.21 365.052 7
-5 2 -7 1365.44 287.602 6
-5 2 -7 2215.9 372.205 3
-5 2 -7 2402.47 498.888 7
-5 2 -8 252.9 110.026 6
-5 2 -8 281.537 146.512 3
-5 2 -8 154.602 86.3263 7
-5 2 -9 549.339 174.236 6
-5 2 -9 970.066 269.933 3
-5 2 -9 786.924 317.773 7
-5 1 12 2518.36 424.727 5
5 -1 -12 2588.28 392.89 2
-5 1 11 6.26706 69.7148 5
5 -1 -11 80.413 99.7782 2
-5 1 10 2643.98 384.152 5
5 -1 -10 2498.63 360.524 2
-5 1 9 11425.3 775.622 5
5 -1 -9 11008 749.494 2
-5 1 8 32779 1274.27 5
5 -1 -8 29491.5 1178.18 2
-5 1 7 16526 876.609 5
5 -1 -7 13898.4 768.636 2
-5 1 6 751.786 184.908 5
5 -1 -6 462.338 130.605 2
-5 1 6 652.583 172.068 1
-5 1 5 10297.1 645.976 5
-5 1 5 10541.5 623.699 1
5 -1 -5 9355.95 592.552 2
-5 1 4 181.256 93.9913 1
5 -1 -4 161.709 101.154 2
5 -1 -3 19279.4 801.294 2
5 -1 -2 11661.3 608.552 2
5 -1 -1 21352.8 796.869 2
-5 1 1 21870.2 840.82 6
5 -1 0 3258.2 300.015 2
-5 1 -1 -54.0548 67.2768 3
5 -1 1 29.0712 71.7404 2
-5 1 -2 8298.5 553.911 3
5 -1 2 8058.3 443.454 2
-5 1 -2 7503.29 545.528 6
-5 1 -3 155.588 123.136 6
-5 1 -3 324.21 113.047 3
5 -1 3 226.814 69.802 2
-5 1 -3 87.9924 113.51 7
-5 1 -4 17493.7 871.69 3
5 -1 4 17364.4 580.197 2
-5 1 -4 17766.1 932.825 6
-5 1 -5 663.171 188.586 6
-5 1 -5 639.259 165.002 3
-5 1 -5 776.138 235.516 7
-5 1 -6 3392.85 434.667 3
-5 1 -6 3868.01 573.858 7
-5 1 -6 2750.08 380.986 6
-5 1 -7 350.416 124.785 6
-5 1 -7 752.889 239.948 3
-5 1 -7 917.023 295.086 7
-5 1 -8 -9.40225 73.6639 6
-5 1 -8 94.9055 96.7941 3
-5 1 -8 84.3034 130.254 7
-5 1 -9 206.546 110.655 6
-5 1 -9 205.945 145.257 3
-5 1 -9 220.371 171.902 7
-5 0 12 426.84 186.575 5
5 0 -12 316.697 143.838 2
-5 0 11 1435.01 292.523 5
5 0 -11 1509.43 279.263 2
-5 0 10 90.9544 87.5719 5
5 0 -10 337.36 125.833 2
-5 0 9 211.583 138.304 5
5 0 -9 178.236 73.688 2
-5 0 8 100.111 56.4649 5
5 0 -8 -9.81537 64.3519 2
-5 0 7 14428.4 781.081 5
-5 0 7 15380 882.858 1
5 0 -7 13093.5 750.481 2
-5 0 6 1416.4 231.814 5
-5 0 6 2083.04 307.993 1
5 0 -6 1586.92 254.075 2
-5 0 5 14998.1 732.782 5
5 0 -5 14741.2 748.608 2
-5 0 5 16369.7 777.954 1
5 0 -4 4627.18 409.664 2
5 0 -3 18251.8 789.288 2
5 0 -2 44169.6 1201.2 2
-5 0 1 163.469 82.1669 6
5 0 -1 119.127 70.9624 2
5 0 0 6640.3 424.082 2
-5 0 -1 717.592 171.521 3
5 0 1 854.525 149.136 2
-5 0 -2 5850.62 488.984 3
5 0 2 6245.69 397.352 2
-5 0 -2 6449.92 515.163 6
-5 0 -3 6718.42 530.906 3
5 0 3 6344.83 391.44 2
-5 0 -3 5993.73 516.158 6
-5 0 -4 13430.7 790.687 3
5 0 4 11685.3 471.117 4
-5 0 -4 12220.2 760.895 6
-5 0 -5 2932.64 389.668 3
-5 0 -5 3065.59 474.084 7
-5 0 -5 2620.54 373.158 6
-5 0 -6 301.211 140.936 6
-5 0 -6 65.328 66.8377 3
-5 0 -6 63.0446 87.8805 7
-5 0 -7 948.594 243.944 6
-5 0 -7 1353.51 304.523 3
-5 0 -7 1687.4 392.56 7
-5 0 -8 336.059 164.221 6
-5 0 -8 285.148 168.227 3
-5 0 -8 432.457 206.948 7
-5 0 -9 1314.94 319.037 6
-5 0 -9 899.059 346.098 3
-5 0 -9 1524.75 394.539 7
5 1 -12 32.7664 69.0487 2
-5 -1 12 -21.7945 85.46 5
-5 -1 11 1231.72 287.411 5
5 1 -11 1690.83 308.367 2
-5 -1 10 11364.4 781.905 5
5 1 -10 10435.5 738.702 2
-5 -1 9 10219.2 695.726 5
5 1 -9 9435.04 676.648 2
-5 -1 8 1063.24 243.021 1
-5 -1 8 579.634 147.61 5
5 1 -8 861.755 211.744 2
-5 -1 7 6289.41 487.123 5
-5 -1 7 7210.34 625.41 1
5 1 -7 5726.28 490.634 2
-5 -1 6 6501.32 481.095 5
5 1 -6 6091.54 488.342 2
-5 -1 6 7482.04 580.132 1
-5 -1 6 5130.84 317.145 6
-5 -1 5 8836.05 522.66 5
5 1 -5 7967.88 544.801 2
-5 -1 4 5585.54 383.957 5
5 1 -4 5486.38 442.661 2
5 1 -3 281.316 95.4248 2
5 1 -2 219.952 93.2293 2
5 1 -1 59.9776 73.7 2
-5 -1 1 -53.2262 80.237 6
5 1 0 1666.2 218.946 2
-5 -1 0 1675.22 265.284 3
-5 -1 -1 1401.42 244.628 3
5 1 1 1333.34 199.651 2
-5 -1 -2 11594.9 723.235 3
5 1 2 11156.2 581.39 2
-5 -1 -2 11705.2 708.558 6
-5 -1 -3 13179.3 780.679 3
5 1 3 12308 585.722 4
-5 -1 -3 13206.7 788.956 6
-5 -1 -4 2008.72 317.093 3
5 1 4 2059.63 218.433 4
-5 -1 -4 2274.51 352.219 6
-5 -1 -5 2258.33 353.457 3
-5 -1 -5 3173.21 477.675 7
-5 -1 -5 3205.29 424.821 6
-5 -1 -6 199.396 125.055 3
-5 -1 -6 30.8327 81.0184 7
-5 -1 -6 -147.664 127.164 6
-5 -1 -7 450.424 202.019 6
-5 -1 -7 515.273 192.916 3
-5 -1 -7 449.727 187.122 7
-5 -1 -8 135.55 143.257 6
-5 -1 -8 114.361 155.542 3
-5 -1 -8 109.866 77.7985 7
-5 -1 -9 199.021 126.945 6
-5 -1 -9 63.5137 175.543 3
5 2 -12 96.7832 72.0688 2
-5 -2 12 129.683 119.763 5
5 2 -11 270.482 131.893 2
-5 -2 11 360.497 149.898 5
5 2 -10 508.467 164.53 2
-5 -2 10 433.715 152.11 5
5 2 -9 671.066 189.249 2
-5 -2 9 891.147 205.462 5
-5 -2 8 990.025 198.169 5
5 2 -8 1224.28 241.548 2
-5 -2 8 1242.29 272.901 1
-5 -2 7 225.315 72.6292 6
-5 -2 7 104.296 46.9467 5
5 2 -7 275.976 116.508 2
-5 -2 7 169.887 99.6169 1
-5 -2 6 467.906 179.388 1
-5 -2 6 394.899 109.577 5
5 2 -6 294.235 106.837 2
-5 -2 6 381.261 119.567 6
-5 -2 5 5528.12 384.565 5
5 2 -5 5933.7 499.151 2
-5 -2 4 9282.1 446.311 5
5 2 -4 10471.8 641.508 2
5 2 -3 1862.57 270.981 2
5 2 -2 1675.75 246.771 2
-5 -2 2 1878.29 270.641 6
5 2 -1 692.331 159.679 2
-5 -2 1 747.609 173.167 6
-5 -2 0 2252.7 326.691 3
5 2 0 1828.02 258.4 2
-5 -2 0 2098.06 287.633 6
5 2 0 1605.88 247.448 4
-5 -2 -1 3975.22 437.928 3
5 2 1 3710.13 373.492 4
-5 -2 -1 4228.32 439.366 6
-5 -2 -2 247.795 129.656 3
5 2 2 222.709 93.5552 4
-5 -2 -2 328.154 96.4131 6
-5 -2 -3 1874.89 308.296 3
5 2 3 1463 224.892 4
-5 -2 -3 2079.52 329.597 6
-5 -2 -4 3491.61 434.148 3
5 2 4 3225.12 328.751 4
-5 -2 -4 3374.44 443.783 6
-5 -2 -5 -111.075 96.4715 3
-5 -2 -5 -19.1855 73.4594 7
-5 -2 -6 1117.47 275.778 3
-5 -2 -6 1040.82 268.408 7
-5 -2 -6 1391.09 310.315 6
-5 -2 -7 597.269 214.978 3
-5 -2 -7 562.462 202.464 7
-5 -2 -7 650.131 253.712 6
5 2 8 2746.87 416.704 5
-5 -2 -8 2358.48 509.614 3
-5 -2 -8 2769.54 476.309 6
-5 -3 12 2534.58 422.806 5
5 3 -12 2511.05 422.598 4
-5 -3 11 2116.88 352.89 5
5 3 -11 1990.04 364.019 4
-5 -3 10 699.304 193.995 5
5 3 -10 448.412 163.623 2
5 3 -10 593.359 213.985 4
5 3 -9 140.441 101.909 2
-5 -3 9 215.606 137.801 1
-5 -3 9 304.809 123.043 5
5 3 -8 178.15 112.979 2
-5 -3 8 262.046 107.514 5
-5 -3 8 62.3403 116.432 1
5 3 -7 540.582 158.399 2
-5 -3 7 551.568 192.41 1
-5 -3 7 588.879 142.731 5
-5 -3 7 390.786 113.099 6
-5 -3 6 953.461 223.722 1
5 3 -6 486.915 149.165 2
-5 -3 6 595.029 132.825 5
-5 -3 5 3286.67 279.282 5
5 3 -5 3687.12 408.497 2
5 3 -4 769.433 188.078 2
-5 -3 4 726.586 110.522 5
5 3 -3 -39.1184 54.05 2
-5 -3 3 -4.07527 63.2918 6
5 3 -3 -23.1969 41.692 4
5 3 -2 822.553 191.922 2
-5 -3 2 995.492 200.232 6
5 3 -2 718.052 181.31 4
5 3 -1 1903.53 299.221 4
-5 -3 1 2309.16 310.352 6
-5 -3 0 3141.51 422.095 3
5 3 0 3052.92 370.45 4
-5 -3 0 3373.37 378.79 6
-5 -3 -1 7665.94 658.59 3
5 3 1 7267.21 564.133 4
-5 -3 -1 8224.2 618.289 6
-5 -3 -2 184.536 116.137 3
5 3 2 -0.17797 60.6533 4
-5 -3 -2 -36.759 93.06 6
-5 -3 -3 27.7862 49.8755 3
5 3 3 120.536 85.6734 4
-5 -3 -3 142.786 97.2507 6
-5 -3 -4 1619.83 302.393 3
5 3 4 1706.81 270.139 4
-5 -3 -4 1894.01 347.23 6
-5 -3 -5 10.8008 99.6087 3
-5 -3 -5 206.699 141.027 6
-5 -3 -6 1552.42 329.339 3
-5 -3 -6 1704.45 330.041 7
-5 -3 -6 1642.32 354.388 6
-5 -3 -7 34.7519 66.8372 3
-5 -3 -7 36.0519 173.614 6
-5 -3 -8 147.784 194.878 3
-5 -3 -8 -213.626 115.903 6
-5 -4 11 73.075 89.2908 5
5 4 -11 18.4177 81.7109 7
5 4 -11 99.1967 113 4
-5 -4 10 320.396 136.908 5
5 4 -10 237.537 144.678 7
5 4 -10 198.431 137.84 4
-5 -4 9 -115.359 106.059 5
5 4 -9 41.1904 85.0475 7
5 4 -9 -34.316 60.6604 4
-5 -4 9 -75.2258 129.016 1
-5 -4 8 701.772 170.976 5
-5 -4 8 1009.54 277.734 1
5 4 -8 888.07 227.897 4
-5 -4 7 1811.5 245.74 5
5 4 -7 2032.67 345.12 4
-5 -4 7 2183.54 381.93 1
-5 -4 6 2.35926 37.9832 5
5 4 -6 -56.7258 90.5889 4
-5 -4 5 2175.35 201.95 5
5 4 -5 2702.38 401.464 4
5 4 -4 97.3983 53.5532 4
5 4 -3 1037.7 245.81 4
5 4 -2 28.547 85.4264 4
5 4 -1 1359.73 263.659 4
-5 -4 0 3614.68 465.001 3
5 4 0 3147.82 410.582 4
-5 -4 -1 6.07849 56.768 3
5 4 1 -40.9202 72.6349 4
-5 -4 -2 402.915 141.58 3
5 4 2 726.577 213.051 4
-5 -4 -3 2327.15 377.841 3
5 4 3 2500.11 370.6 4
-5 -4 -3 2728.97 406.732 6
-5 -4 -4 -10.5602 58.3449 3
5 4 4 54.8603 48.5067 4
-5 -4 -4 -61.971 110.747 6
-5 -4 -5 -103.414 127.183 3
-5 -4 -5 105.155 153.915 6
-5 -4 -6 1728.92 349.575 3
-5 -4 -6 1770.39 394.151 6
-5 -4 -7 210.598 202.069 3
-5 -4 -7 468.157 169.627 6
5 5 -10 35.9926 75.8228 7
5 5 -10 -56.1803 113.166 4
-5 -5 9 -256.968 188.003 1
5 5 -9 -193.374 112.538 7
5 5 -9 -18.0597 70.7284 4
-5 -5 8 175.297 150.797 1
5 5 -8 -126.237 119.722 4
-5 -5 7 160.235 115.861 1
5 5 -7 121.198 125.52 4
5 5 -6 65.1728 69.5314 4
5 5 -5 549.255 197.414 4
5 5 -4 32.8711 51.3385 4
5 5 -3 936.567 247.27 4
5 5 -2 388.095 153.28 4
5 5 -1 442.841 155.368 4
5 5 0 1959.63 364.231 4
-5 -5 -1 196.197 131.443 3
5 5 1 101.654 72.8891 4
-5 -5 -2 -46.6988 61.7787 3
5 5 2 241.63 169.868 4
-5 -5 -3 60.1313 96.9561 3
5 5 3 34.9148 64.6228 4
-5 -5 -4 1104.68 271.257 3
5 5 4 819.677 209.31 4
-5 -5 -5 540.515 171.47 3
-5 -5 -5 717.146 245.543 6
-5 -5 -6 75.2063 73.0292 3
-5 -5 -6 -32.6985 144.663 6
-5 -6 9 92.9378 110.503 1
5 6 -9 108.904 66.5437 7
5 6 -9 257.136 152.117 4
-5 -6 8 655.482 236.009 1
5 6 -8 1175 322.523 7
5 6 -8 645.875 236.023 4
5 6 -7 126.294 103.833 4
-5 -6 7 -53.9908 142.457 1
5 6 -6 168.935 99.7362 4
5 6 -5 233.567 130.681 4
5 6 -4 16.0063 100.49 4
5 6 -3 -77.361 94.2987 4
5 6 -2 339.839 163.496 4
5 6 -1 1327.46 320.885 4
5 6 0 1207.71 318.13 4
-5 -6 -1 236.766 143.077 3
5 6 1 85.1262 82.5563 4
-5 -6 -2 98.3353 113.634 3
5 6 2 129.544 102.822 4
-5 -6 -3 -29.3833 108.283 3
5 6 3 -99.6321 103.137 4
-5 -6 -4 514.753 191.868 3
5 6 4 624.616 228.931 4
-5 -6 -5 733.617 254.383 3
-5 -7 8 -8.17434 135.05 1
5 7 -8 11.7136 68.5606 4
5 7 -7 404.923 197.09 4
-5 -7 7 196.145 109.441 1
5 7 -6 110.868 131.88 4
5 7 -5 817.262 275.434 4
5 7 -4 181.523 72.191 4
5 7 -3 -49.6577 120.918 4
5 7 -2 -19.515 96.5384 4
5 7 -1 -111.781 149.433 4
5 7 0 -8.47842 85.3618 4
5 7 1 -50.6662 61.0118 4
-5 -7 -2 430.338 176.691 3
5 7 2 526.252 179.988 4
-5 -7 -3 763.754 243.319 3
5 7 3 1196.12 322.96 4
-5 -7 -4 280.372 143.084 3
5 7 4 -39.8447 91.9512 4
5 8 -6 103.703 80.5616 4
5 8 -5 -159.847 196.898 4
5 8 -4 125.651 153.887 4
5 8 -3 154.593 169.354 4
5 8 -2 61.9267 83.7893 4
5 8 -1 217.836 186.587 4
5 8 0 159.316 119.018 4
5 8 1 174.183 136.219 4
-5 -8 -2 -196.33 148.079 3
5 8 2 329.258 202.229 4
6 -8 -5 199.328 119.264 2
6 -8 -4 1440.61 330.845 2
6 -8 -3 503.202 196.973 2
6 -8 -2 19.7759 64.44 2
-6 8 2 51.2642 70.761 7
6 -8 -1 2.47207 92.8339 2
-6 8 1 17.5194 80.2649 7
6 -8 0 354.667 162.887 2
-6 8 0 318.707 182.598 7
6 -8 1 318.327 152.001 2
-6 8 -1 376.472 216.179 7
6 -8 2 1188.66 290.661 2
-6 8 -2 1209.08 383.427 7
6 -8 3 157.65 109.65 2
-6 8 -3 -43.8808 171.212 7
6 -7 -7 2233.2 422.001 2
6 -7 -6 184.749 108.566 2
6 -7 -5 487.891 207.83 2
6 -7 -4 515.535 187.573 2
6 -7 -3 639.782 214.158 2
-6 7 3 482.682 186.041 7
6 -7 -2 105.669 112.188 2
-6 7 2 235.367 140.754 7
-6 7 1 8994.48 865.1 7
6 -7 -1 9981.67 786.822 2
6 -7 0 2331.76 374.114 2
-6 7 0 2060.68 446.158 7
6 -7 1 11.762 84.5481 2
-6 7 -1 131.091 125.688 7
6 -7 2 1101.18 258.673 2
-6 7 -2 994.787 332.093 7
-6 7 -3 1771.22 449.707 7
6 -7 3 2230.41 355.161 2
-6 7 -4 -37.2895 140.186 7
6 -6 -9 -150.965 144.138 2
6 -6 -8 385.327 163.974 2
6 -6 -7 6.96108 89.5233 2
6 -6 -6 2964.36 452.688 2
-6 6 5 2896.13 381.679 7
6 -6 -5 3702.84 517.426 2
6 -6 -4 483.392 175.819 2
-6 6 4 336.771 134.983 7
6 -6 -3 72.7018 88.56 2
-6 6 3 453.059 166.738 7
6 -6 -2 536.921 162.76 2
-6 6 2 123.856 72.3912 7
-6 6 1 2928.64 465.618 7
6 -6 -1 3104.23 429.693 2
-6 6 0 2769.21 472.022 7
6 -6 0 2880.89 406.992 2
6 -6 1 -113.874 123.697 2
-6 6 -1 78.8032 102.047 7
6 -6 2 289.299 121.238 2
-6 6 -2 163.626 137.368 7
6 -6 3 1984.53 297.789 2
-6 6 -3 2238.13 487.35 7
-6 6 -4 9644.71 1065.43 7
-6 6 -5 687.626 291.285 7
-6 6 -6 48.83 130.838 7
6 -5 -10 907.604 276.697 2
6 -5 -9 1059.22 264.549 2
6 -5 -8 245.634 158.464 2
6 -5 -7 544.199 190.094 2
6 -5 -6 630.966 216.389 2
6 -5 -5 576.606 173.337 2
6 -5 -4 70.6085 103.517 2
-6 5 3 4953.51 521.472 7
6 -5 -3 5893.6 594.651 2
-6 5 2 16805.2 1000.09 7
6 -5 -2 17129.3 974.08 2
6 -5 -1 479.957 160.533 2
-6 5 1 349.837 153.465 7
-6 5 0 3861.39 532.087 7
6 -5 0 3962.21 441.776 2
6 -5 1 968.245 210.949 2
-6 5 -1 1009.33 295.903 7
-6 5 -2 2450.54 464.474 7
6 -5 2 2547.15 329.663 2
6 -5 3 162.479 97.1628 2
-6 5 -3 -93.2036 147.993 7
-6 5 -4 9.25784 86.393 7
-6 5 -5 1136.52 384.572 7
-6 5 -6 663.219 293.602 7
-6 4 10 921.442 253.521 5
6 -4 -10 1036.2 261.91 2
-6 4 9 22.5114 62.5285 5
6 -4 -9 264.888 123.022 2
6 -4 -8 9095.76 780.402 2
6 -4 -7 6927.75 667.887 2
6 -4 -6 559.504 204.019 2
6 -4 -5 858.792 225.897 2
6 -4 -4 1764.59 316.394 2
6 -4 -3 223.926 102.308 2
6 -4 -2 2201.74 334.043 2
-6 4 2 2209.45 225.454 1
6 -4 -1 1728.33 285.47 2
-6 4 1 1590.32 174.916 1
6 -4 0 384.195 143.459 2
-6 4 0 252.41 137.466 7
-6 4 -1 3113.03 484.827 7
6 -4 1 2657.96 336.518 2
-6 4 -2 36859.3 1732.74 7
6 -4 2 33441.3 1178.62 2
-6 4 -3 13934.3 1140.37 7
6 -4 3 11420.7 642.918 2
-6 4 -4 4.1532 91.8814 7
-6 4 -5 829.194 289.186 7
-6 4 -6 239.857 159.36 7
-6 4 -7 -118.671 176.213 7
-6 3 11 326.021 169.999 5
6 -3 -11 518.335 211.477 2
-6 3 10 -20.7466 92.4605 5
6 -3 -10 -163.263 140.339 2
-6 3 9 3879.85 504.183 5
6 -3 -9 4369.54 517.268 2
-6 3 8 334.221 149.664 5
6 -3 -8 350.724 147.639 2
6 -3 -7 2952.92 423.292 2
6 -3 -6 -44.0262 101.384 2
6 -3 -5 2855.14 410.589 2
-6 3 4 8637.69 555.04 1
6 -3 -4 9891.69 732.154 2
-6 3 3 3163.56 297.502 1
6 -3 -3 3403.21 412.944 2
6 -3 -2 2812.25 375.027 2
6 -3 -1 762.981 215.015 2
6 -3 0 3311.18 381.366 2
-6 3 -1 247.365 117.998 6
-6 3 -1 435.965 187.816 7
6 -3 1 267.332 121.346 2
-6 3 -2 325.995 148.204 6
-6 3 -2 22.2253 91.388 7
6 -3 2 74.0337 97.3217 2
-6 3 -3 1056.85 252.803 6
-6 3 -3 1031.75 214.971 3
-6 3 -3 1533.42 369.699 7
6 -3 3 882.014 162.338 2
-6 3 -4 1049.11 259.261 6
-6 3 -4 1585.5 266.357 3
-6 3 -4 1551.41 372.744 7
-6 3 -5 202.393 114.173 6
-6 3 -5 237.712 126.916 3
-6 3 -5 360.83 169.347 7
-6 3 -6 181.459 113.4 6
-6 3 -6 952.781 222.064 3
-6 3 -6 1218.49 404.944 7
-6 3 -7 625.675 195.55 3
-6 3 -7 823.766 324.561 7
-6 2 11 -11.7347 56.5307 5
6 -2 -11 11.5463 81.1154 2
-6 2 10 89.0184 58.4215 5
6 -2 -10 346.373 132.14 2
-6 2 9 4322.13 513.651 5
6 -2 -9 4369.16 494.602 2
-6 2 8 2267.93 371.128 5
6 -2 -8 2417.48 356.462 2
-6 2 7 944.249 223.17 5
6 -2 -7 634.47 189.107 2
-6 2 6 6245.4 536.112 1
6 -2 -6 6393.13 560.231 2
-6 2 5 12.6746 45.5775 1
6 -2 -5 81.5647 142.441 2
-6 2 4 9607.09 576.624 1
6 -2 -4 10492.2 689.701 2
6 -2 -3 1221 248.341 2
6 -2 -2 1568.71 264.367 2
-6 2 2 1492.56 250.971 6
6 -2 -1 3024.81 349.729 2
-6 2 1 2798.28 360.689 6
6 -2 0 20745.8 855.383 2
-6 2 0 19618.2 924.36 6
6 -2 1 47208.3 1256 2
-6 2 -1 48055.6 1479.22 6
-6 2 -2 402.117 136.705 3
-6 2 -2 308.571 124.541 6
6 -2 2 384.656 126.657 2
-6 2 -3 254.997 120.861 6
-6 2 -3 311.063 106.331 3
6 -2 3 491.742 120.871 2
-6 2 -3 327.337 149.812 7
-6 2 -4 1763.79 290.251 3
-6 2 -4 1501.15 281.457 6
-6 2 -4 1874.35 409.423 7
-6 2 -5 100.08 69.9114 6
-6 2 -5 112.43 85.9715 3
-6 2 -6 78.5449 88.6021 6
-6 2 -6 148.037 90.6687 3
-6 2 -6 309.202 175.658 7
-6 2 -7 24.3689 65.7885 6
-6 2 -7 56.1036 69.9877 3
-6 2 -7 -173.119 160.587 7
-6 2 -8 -134.296 139.473 6
-6 2 -8 16.105 77.2684 3
-6 1 12 -67.452 112.401 5
6 -1 -12 5.24429 64.1707 2
-6 1 11 303.171 123.962 5
6 -1 -11 413.649 173.228 2
-6 1 10 1045.86 252.629 5
6 -1 -10 964.203 255.375 2
-6 1 9 808.301 200.935 5
6 -1 -9 655.807 186.709 2
-6 1 8 2354.05 354.93 5
6 -1 -8 1981.15 330.925 2
-6 1 7 12.2926 99.9315 1
-6 1 7 34.4584 46.9395 5
6 -1 -7 -134.068 84.7036 2
-6 1 6 999.698 214.734 1
6 -1 -6 745.303 187.632 2
-6 1 5 97.124 60.1953 1
6 -1 -5 -24.1265 88.3973 2
6 -1 -4 23333.2 1005.31 2
-6 1 4 24784 943.328 6
-6 1 3 448.295 125.611 6
6 -1 -3 675.73 177.493 2
-6 1 2 441.027 124.12 6
6 -1 -2 636.418 168.768 2
-6 1 1 526.62 142.949 6
6 -1 -1 910.179 187.188 2
-6 1 0 1515.78 249.972 6
6 -1 0 1309.85 211.184 2
-6 1 -1 196.527 103.233 6
6 -1 1 32.7081 62.8 2
-6 1 -2 577.851 164.762 6
-6 1 -2 505.306 154.883 3
6 -1 2 695.474 148.448 2
-6 1 -3 3522.8 413.267 3
6 -1 3 3460.62 310.6 2
-6 1 -3 3876.66 461.423 6
-6 1 -4 837.523 234.648 6
-6 1 -4 787.545 204.79 3
-6 1 -4 780.722 265.703 7
-6 1 -5 1179.83 261.953 6
-6 1 -5 1269.57 265.12 3
-6 1 -5 1817.29 405.053 7
-6 1 -6 1063.94 255.652 6
-6 1 -6 932.636 230.616 3
-6 1 -6 1548.59 412.632 7
-6 1 -7 78.2717 96.1164 6
-6 1 -7 -48.8642 117.148 3
-6 1 -8 51.9325 61.2813 6
-6 1 -8 144.116 59.8794 3
-6 1 -8 -55.2357 103.02 7
-6 0 12 -10.9964 59.64 5
6 0 -12 -73.6465 98.9981 2
-6 0 11 20.2429 62.1207 5
6 0 -11 131.365 114.446 2
-6 0 10 569.539 182.28 5
6 0 -10 491.247 187.55 2
-6 0 9 -19.6345 65.4913 5
6 0 -9 -32.5104 65.6741 2
-6 0 8 2876.92 422.166 1
-6 0 8 2760.76 376.071 5
6 0 -8 2706.41 378.844 2
-6 0 7 145.059 79.9034 1
-6 0 7 235.527 105.061 5
6 0 -7 -7.71891 98.3945 2
-6 0 6 1361.54 268.234 1
-6 0 6 1170.32 218.576 5
6 0 -6 972.016 207.48 2
6 0 -5 5028.12 473.166 2
-6 0 5 5986.9 506.047 1
-6 0 4 23.8398 59.4524 6
6 0 -4 225.072 115.787 2
-6 0 3 930.471 177.766 6
6 0 -3 1416.79 251.108 2
6 0 -2 2746.77 321.573 2
-6 0 2 2293.64 286.26 6
6 0 -1 53456 1397.31 2
-6 0 1 46703.6 1328.83 6
6 0 0 11463.4 629.363 2
-6 0 0 11119.9 687.082 6
-6 0 -1 5500.4 516.455 3
6 0 1 5559.16 427.56 2
-6 0 -1 5399.74 487.751 6
-6 0 -2 52.2107 85.3601 6
-6 0 -2 -16.5026 80.8039 3
6 0 2 104.867 60.2984 2
-6 0 -3 718.528 182.095 6
-6 0 -3 901.714 221.286 3
6 0 3 1084.36 186.236 2
-6 0 -4 289.718 143.965 6
-6 0 -4 52.7753 49.7729 3
-6 0 -4 144.47 117.626 7
-6 0 -5 1656.31 324.064 6
-6 0 -5 1966.84 336.677 3
-6 0 -5 2575.83 478.8 7
-6 0 -6 546.158 173.036 6
-6 0 -6 645.777 204.855 3
-6 0 -6 575.452 219.032 7
-6 0 -7 309.253 144.614 6
-6 0 -7 709.487 214.291 3
-6 0 -7 768.303 288.408 7
-6 0 -8 -80.239 78.2099 6
-6 0 -8 18.2106 99.2275 3
-6 0 -8 -27.1136 124.608 7
6 1 -12 558.537 187.165 2
-6 -1 12 668.925 206.3 5
-6 -1 11 115.631 83.9402 5
6 1 -11 211.737 138.051 2
-6 -1 10 2957.45 409.072 5
6 1 -10 3352.66 449.479 2
-6 -1 9 370.014 143.917 5
6 1 -9 399.994 139.344 2
-6 -1 8 262.949 147.364 1
-6 -1 8 199.146 103.465 5
6 1 -8 -57.7645 94.6413 2
-6 -1 7 27.8435 43.6593 6
-6 -1 7 -20.3764 52.7036 5
6 1 -7 138.134 107.747 2
-6 -1 7 -118.549 99.5415 1
-6 -1 6 916.872 231.561 1
-6 -1 6 874.868 175.479 5
6 1 -6 831.2 192.484 2
6 1 -5 6462.66 540.707 2
-6 -1 4 339.155 109.539 6
6 1 -4 586.862 171.447 2
6 1 -3 3864.56 401.09 2
-6 -1 3 4204.34 410.438 6
6 1 -2 2760.32 325.796 2
-6 -1 2 2598.21 330.557 6
6 1 -1 137.051 81.2329 2
-6 -1 1 283.59 168.22 6
6 1 0 2225.72 288.98 2
-6 -1 0 2386.55 336.196 6
-6 -1 -1 994.208 232.424 3
6 1 1 1085.29 199.733 2
-6 -1 -1 1202.22 242.94 6
6 1 2 800.195 167.639 2
-6 -1 -2 722.177 191.746 3
6 1 2 673.887 154.172 4
-6 -1 -2 628.674 205.509 6
-6 -1 -3 2685.34 391.542 3
6 1 3 2586.53 293.794 4
-6 -1 -3 2697.48 371.615 6
-6 -1 -4 2838.21 397.412 3
-6 -1 -4 3632.44 470.055 6
-6 -1 -5 383.949 168.889 6
-6 -1 -5 385.758 164.52 3
-6 -1 -5 649.804 215.256 7
-6 -1 -6 515.271 230.739 6
-6 -1 -6 -21.4818 91.7492 3
-6 -1 -6 476.382 210.932 7
-6 -1 -7 9.85183 100.405 6
-6 -1 -7 -152.763 159.416 3
-6 -1 -7 -149.541 128.823 7
-6 -1 -8 359.499 171.006 6
-6 -1 -8 43.8194 85.1531 3
-6 -1 -8 190.31 186.753 7
6 2 -11 -101.182 113.587 2
-6 -2 11 127.802 81.4901 5
6 2 -10 666.405 209.858 2
-6 -2 10 588.705 189.358 5
6 2 -9 779.082 211.547 2
-6 -2 9 880.316 210.689 5
-6 -2 9 1247.1 310.288 1
6 2 -8 459.458 180.08 2
-6 -2 8 325.095 130.476 5
-6 -2 8 366.452 158.596 1
-6 -2 7 2849.79 330.128 5
6 2 -7 3964.36 459.539 2
-6 -2 7 4172.56 505.131 1
6 2 -6 413.893 159.146 2
-6 -2 6 251.237 99.4646 5
-6 -2 6 235.072 111.573 1
6 2 -5 321.322 123.058 2
-6 -2 5 485.614 121.53 6
6 2 -4 4291.65 453.257 2
-6 -2 4 3907.21 384.327 6
6 2 -3 6464.69 545.523 2
-6 -2 3 5856.98 490.629 6
6 2 -2 24417.7 1056.69 2
-6 -2 2 24042.6 1035.39 6
6 2 -1 124.012 80.4678 2
-6 -2 1 159.647 125.701 6
6 2 0 2687.79 341.313 2
6 2 0 2316.28 321.045 4
-6 -2 0 2990.53 390.168 6
-6 -2 -1 188.494 99.8903 3
6 2 1 250.424 111.468 4
-6 -2 -1 234.25 162.301 6
-6 -2 -2 1713.63 320.496 3
6 2 2 1668.54 260.165 4
-6 -2 -2 1792.04 325.063 6
-6 -2 -3 3226.16 447.768 3
6 2 3 2880.32 324.541 4
-6 -2 -3 3501.99 459.916 6
-6 -2 -4 -7.05791 75.7922 3
-6 -2 -4 -11.9719 128.323 6
-6 -2 -5 1981.8 368.785 3
-6 -2 -5 2200.52 414.609 7
-6 -2 -5 2415.9 428.329 6
-6 -2 -6 127.718 103.679 3
-6 -2 -6 294.661 158.961 7
-6 -2 -6 505.242 248.791 6
-6 -2 -7 132.591 134.834 3
-6 -2 -7 100.86 82.392 7
-6 -3 11 1306.72 285.038 5
6 3 -11 1297.26 307.274 2
6 3 -11 849.241 262.635 4
6 3 -10 124.943 102.243 2
-6 -3 10 -169.833 118.223 5
-6 -3 9 510.998 230.787 1
6 3 -9 75.721 78.4332 2
-6 -3 9 364.824 125.454 5
6 3 -8 297.798 156.059 2
-6 -3 8 243.197 103.773 5
-6 -3 8 344.675 170.437 1
-6 -3 7 4094.19 377.19 5
6 3 -7 4247.88 497.843 2
-6 -3 6 672.812 139.089 5
-6 -3 6 609.475 164.444 6
6 3 -5 1305.23 253.9 2
-6 -3 5 1540.59 256.526 6
6 3 -4 1390.43 264.34 2
-6 -3 4 1324.88 256.488 6
6 3 -3 546.291 158.179 2
-6 -3 3 637.141 167.578 6
6 3 -3 718.477 197.805 4
6 3 -2 104.242 69.778 2
-6 -3 2 -8.78387 109.185 6
6 3 -2 156.504 85.5695 4
-6 -3 1 1362.33 277.578 6
6 3 -1 1185.97 257.454 4
6 3 0 -73.2601 89.9003 4
-6 -3 0 -165.552 132.235 6
-6 -3 -1 955.39 268.971 3
6 3 1 990.378 224.269 4
-6 -3 -1 1442.67 286.635 6
-6 -3 -2 6489.82 645.248 3
6 3 2 5917.31 530.556 4
-6 -3 -2 7431.32 704.225 6
-6 -3 -3 5656.75 608.356 3
6 3 3 5992.37 539.511 4
-6 -3 -4 537.601 183.599 3
-6 -3 -4 962.766 288.381 6
-6 -3 -5 242.766 141.405 3
-6 -3 -5 283.158 156.117 6
-6 -3 -6 -0.10606 59.7934 3
-6 -3 -6 33.4202 96.2352 7
-6 -3 -6 -34.4448 143.568 6
-6 -3 -7 -18.4707 137.099 3
-6 -3 -7 12.4658 142.897 6
-6 -4 10 -32.3018 138.521 1
6 4 -10 94.6479 103.706 4
-6 -4 9 330.06 215.63 1
6 4 -9 415.16 176.344 4
-6 -4 8 1448.08 316.259 1
6 4 -8 1415.17 319.811 4
-6 -4 7 1432.72 328.264 1
6 4 -7 1196.12 294.786 4
-6 -4 6 1712.54 267.996 6
6 4 -6 1307.41 289.878 4
-6 -4 5 102.222 75.5739 6
6 4 -5 -25.6485 117.593 4
6 4 -4 5290.96 573.512 4
-6 -4 4 5157.1 488.016 6
-6 -4 3 1605.87 285.412 6
6 4 -3 1411.79 291.336 4
-6 -4 2 2263.07 336.872 6
6 4 -2 1757.34 322.866 4
6 4 -1 123.967 118.142 4
-6 -4 1 131.052 81.4277 6
6 4 0 79.6322 91.4351 4
-6 -4 0 38.008 104.424 6
-6 -4 -1 6213.45 682.663 3
6 4 1 5974.28 591.793 4
-6 -4 -1 6553.58 629.7 6
-6 -4 -2 742.378 244.706 3
6 4 2 851.085 230.769 4
-6 -4 -2 1256.78 297.919 6
-6 -4 -3 3287.01 487.609 3
6 4 3 2982.79 416.057 4
-6 -4 -3 2748.22 435.705 6
-6 -4 -4 642.205 211.026 3
-6 -4 -4 606.183 188.562 6
-6 -4 -5 102.912 62.7244 3
-6 -4 -5 233.489 132.879 6
-6 -4 -6 699.575 343.256 3
-6 -4 -6 1966 427.758 6
-6 -5 10 -64.2037 145.084 1
6 5 -10 19.1673 74.8818 4
-6 -5 9 -542.061 241.435 1
6 5 -9 52.335 135.963 4
-6 -5 8 917.747 281.412 1
6 5 -8 965.938 272.91 4
-6 -5 7 -53.581 117.522 1
6 5 -7 36.4386 74.0929 4
-6 -5 6 734.243 187.293 6
6 5 -6 629.651 234.188 4
6 5 -5 -97.6647 116.902 4
6 5 -4 6.9586 54.4003 4
6 5 -3 361.605 145.837 4
6 5 -2 368.136 158.292 4
6 5 -1 619.358 203.014 4
6 5 0 204.092 154.589 4
-6 -5 -1 3506.32 523.845 3
6 5 1 3433.37 498.486 4
-6 -5 -1 3692.29 491.145 6
-6 -5 -2 331.111 160.661 3
6 5 2 353.782 162.362 4
-6 -5 -2 493.087 186.68 6
-6 -5 -3 655.257 224.554 3
6 5 3 514.225 205.136 4
-6 -5 -3 415.129 187.064 6
-6 -5 -4 85.6848 97.1297 3
-6 -5 -4 102.686 132.563 6
-6 -5 -5 -19.1473 141.238 3
-6 -5 -5 -39.2131 108.718 6
-6 -6 9 -145.326 171.892 1
6 6 -9 278.199 162.097 4
-6 -6 8 116.006 182.945 1
6 6 -8 248.861 149.792 4
-6 -6 7 89.0527 99.7443 1
6 6 -7 66.021 78.3662 4
6 6 -6 157.588 122.11 4
6 6 -5 916.56 269.171 4
6 6 -4 143.873 119.997 4
6 6 -3 1076.38 287.088 4
6 6 -2 71.7275 127.237 4
6 6 -1 502.732 184.979 4
6 6 0 614.198 244.072 4
6 6 1 89.7466 125.526 4
-6 -6 -2 618.325 250.067 3
6 6 2 313.874 191.231 4
-6 -6 -3 120.59 93.9184 3
6 6 3 71.5619 79.4624 4
-6 -6 -3 179.921 152.508 6
-6 -6 -4 827.7 265.69 3
-6 -6 -4 968.193 296.286 6
-6 -7 7 -40.6762 110.552 1
6 7 -7 117.871 146.444 4
6 7 -6 -67.0753 98.4112 4
6 7 -5 130.437 125.316 4
6 7 -4 -166.222 146.799 4
6 7 -3 646.561 241.87 4
6 7 -2 -11.7931 101.109 4
6 7 -1 430.361 215.929 4
6 7 0 186.55 64.4786 4
6 7 1 59.5237 119.379 4
-6 -7 -2 31.1384 97.1992 3
6 7 2 97.9008 123.426 4
7 -8 -2 74.9525 109.57 2
-7 8 2 187.446 139.702 7
7 -8 -1 46.7923 128.558 2
-7 8 1 149.792 153.539 7
7 -7 -6 744.173 263.238 2
7 -7 -5 580.357 213.172 2
7 -7 -4 979.302 270.809 2
7 -7 -3 -42.6881 105.861 2
-7 7 3 13.7658 80.2132 7
7 -7 -2 397.727 150.144 2
-7 7 2 519.016 221.841 7
7 -7 -1 1850.4 348.471 2
-7 7 1 1589.33 391.033 7
7 -7 0 82.5737 96.3635 2
-7 7 0 0.44046 114.062 7
7 -7 1 181.612 147.791 2
-7 7 -1 243.382 124.495 7
7 -7 2 -110.278 116.269 2
-7 7 -2 51.0206 109.401 7
7 -6 -8 1890.83 401.461 2
7 -6 -7 301.126 228.226 2
7 -6 -6 835.064 281.15 2
7 -6 -5 63.5485 95.8695 2
-7 6 5 94.8365 70.4207 7
7 -6 -4 689.248 227.222 2
-7 6 4 629.403 208.263 7
7 -6 -3 579.629 214.563 2
-7 6 3 850.241 236.893 7
-7 6 2 5059.71 609.608 7
7 -6 -2 5170.17 562.318 2
7 -6 -1 2125.62 353.552 2
-7 6 1 2261.02 430.008 7
7 -6 0 346.902 162.47 2
-7 6 0 512.365 223.616 7
7 -6 1 1189.45 266.34 2
-7 6 -1 1295.13 368.652 7
7 -6 2 347.906 130.357 2
-7 6 -2 197.695 178.422 7
-7 6 -3 974.525 365.6 7
-7 6 -4 1316.09 423.588 7
7 -5 -9 272.467 164.714 2
7 -5 -8 798.148 252.752 2
7 -5 -7 2128.36 421.237 2
7 -5 -6 481.537 198.804 2
7 -5 -5 2591.74 433.314 2
7 -5 -4 2231.77 391.049 2
7 -5 -3 9133.25 757.597 2
7 -5 -2 1175.14 262.362 2
-7 5 2 688.114 218.027 7
7 -5 -1 -29.6443 86.5707 2
-7 5 1 -181.177 151.69 7
7 -5 0 386.482 143.316 2
-7 5 0 291.132 177.87 7
7 -5 1 170.858 95.2939 2
-7 5 -1 264.188 188.658 7
-7 5 -2 -40.5537 98.4137 7
7 -5 2 191.733 94.3508 2
-7 5 -3 95.487 126.51 7
7 -5 3 91.6746 91.9634 2
-7 5 -4 745.259 321.211 7
-7 5 -5 29.6256 137.201 7
7 -4 -10 746.616 222.006 2
7 -4 -9 985.931 248.169 2
7 -4 -8 98.8573 103.606 2
7 -4 -7 4448.89 552.768 2
7 -4 -6 -41.0772 168.396 2
7 -4 -5 -122.225 167.334 2
7 -4 -4 6128.42 622.717 2
7 -4 -3 14252.5 932.621 2
7 -4 -2 4456.47 516.905 2
7 -4 -1 65.4697 108.873 2
-7 4 0 2502.86 448.768 7
7 -4 0 2793.69 387.519 2
-7 4 -1 114.634 71.2526 7
7 -4 1 310.191 133.842 2
-7 4 -2 7428.42 832.136 7
7 -4 2 7561.12 572.48 2
-7 4 -3 407.543 184.599 7
7 -4 3 377.051 120.016 2
-7 4 -4 -100.659 162.467 7
-7 4 -5 71.3722 103.562 7
-7 4 -6 107.527 131.979 7
-7 3 10 25.9551 55.563 5
7 -3 -10 325.386 195.367 2
7 -3 -9 670.767 232.252 2
7 -3 -8 90.8484 115.36 2
7 -3 -7 2762.58 404.669 2
7 -3 -6 110.064 95.2915 2
-7 3 5 8956.71 630.003 1
7 -3 -5 9405.49 747.432 2
-7 3 4 29543.2 1085.83 1
7 -3 -4 31901.4 1360.25 2
-7 3 3 1218.25 204.465 1
7 -3 -3 1469.25 284.911 2
7 -3 -2 5568.33 543.119 2
7 -3 -1 461.573 175.295 2
7 -3 0 2952.84 365.346 2
-7 3 -1 130.354 84.7203 6
-7 3 -1 165.063 96.9515 7
7 -3 1 125.577 96.8947 2
-7 3 -2 478.674 158.412 6
-7 3 -2 631.435 247.489 7
7 -3 2 628.233 167.637 2
-7 3 -3 1033.31 262.694 6
7 -3 3 1671.04 251.17 2
-7 3 -4 -24.5849 70.8428 6
-7 3 -4 -172.421 118.938 3
-7 3 -4 14.2518 138.044 7
-7 3 -5 348.241 150.349 6
-7 3 -5 726.851 306.614 7
-7 3 -6 165.6 92.1527 6
-7 3 -6 598.738 328.802 7
-7 2 11 518.561 193.384 5
7 -2 -11 426.368 208.399 2
-7 2 10 292.221 105.137 5
7 -2 -10 105.009 93.4859 2
-7 2 9 1766.81 342.865 5
7 -2 -9 2021.31 375.782 2
7 -2 -8 903.128 242.035 2
7 -2 -7 338.939 139.917 2
-7 2 6 2334.38 348.949 1
7 -2 -6 1965.5 323.606 2
-7 2 5 1510.68 257.881 1
7 -2 -5 1634.47 303.732 2
-7 2 4 13128.1 724.011 1
7 -2 -4 13137.7 821.485 2
7 -2 -3 7215.1 600.063 2
-7 2 3 6203.35 533.068 6
7 -2 -2 10656.9 716.177 2
-7 2 2 10475.1 743.968 6
-7 2 1 -116.007 96.6801 6
7 -2 -1 -80.1573 111.153 2
7 -2 0 23347 1025.56 2
-7 2 0 21286.5 1039.88 6
7 -2 1 16717.1 834.302 2
-7 2 -1 14253 859.978 6
-7 2 -2 -21.1185 61.2569 6
7 -2 2 0.79772 54.0387 2
-7 2 -3 171.591 110.911 3
-7 2 -3 146.775 72.127 6
7 -2 3 319.11 87.5045 2
-7 2 -3 300.737 169.399 7
-7 2 -4 131.101 140.019 6
-7 2 -4 87.9532 84.5754 3
-7 2 -4 146.155 143.377 7
-7 2 -5 224.839 117.248 6
-7 2 -5 44.5753 90.8226 3
-7 2 -5 -1.18934 129.221 7
-7 2 -6 1322.27 319.265 6
-7 2 -6 1692.54 335.692 3
-7 2 -6 2148.83 519.752 7
-7 1 11 342.505 150.169 5
7 -1 -11 259.799 130.237 2
-7 1 10 -134.957 124.209 5
7 -1 -10 256.46 166.296 2
-7 1 9 448.955 154.421 5
7 -1 -9 559.111 197.072 2
-7 1 8 178.931 117.455 5
7 -1 -8 345.868 166.285 2
-7 1 7 6408.87 623.881 1
7 -1 -7 5228.29 564.523 2
-7 1 6 15226.6 893.607 1
7 -1 -6 14144.6 900.259 2
7 -1 -5 13003.9 855.563 2
-7 1 5 13740 798.109 1
-7 1 5 11390.8 670.189 6
-7 1 4 408.848 122.29 6
7 -1 -4 718.395 191.819 2
7 -1 -3 7709.78 619.729 2
-7 1 3 6431.84 522.228 6
-7 1 2 1410.45 246.551 6
7 -1 -2 1583.98 275.391 2
7 -1 -1 6062.29 525.874 2
-7 1 1 4882.59 483.229 6
-7 1 0 11.5675 78.7162 6
7 -1 0 -46.2652 109.644 2
7 -1 1 5108.16 443.787 2
-7 1 -1 4911.32 502.285 6
-7 1 -2 1450.44 285.378 3
-7 1 -2 1374.56 270.843 6
7 -1 2 1589.21 233.494 2
-7 1 -3 3712.03 465.861 3
7 -1 3 3698.95 352.929 2
-7 1 -3 3959.21 479.886 6
-7 1 -4 43.7625 63.1616 3
-7 1 -4 -76.549 142.732 7
-7 1 -5 -191.916 131.559 6
-7 1 -5 116.212 90.36 3
-7 1 -5 146.251 158.742 7
-7 1 -6 650.349 211.296 6
-7 1 -6 595.595 197.296 3
-7 1 -6 1094.31 355.75 7
-7 0 11 1393.4 307.333 5
7 0 -11 1386.58 321.695 2
-7 0 10 779.892 214.556 5
7 0 -10 677.538 220.559 2
-7 0 9 -56.2671 104.479 5
7 0 -9 10.943 108.309 2
-7 0 8 208.461 119.108 5
7 0 -8 414.006 174.933 2
-7 0 8 247.925 137.995 1
7 0 -7 1534.64 284.917 2
-7 0 7 1808.51 344.711 1
7 0 -6 2895.58 386.525 2
-7 0 6 3606.64 439.604 1
-7 0 6 2368.34 291.477 6
-7 0 5 1060.45 197.751 6
7 0 -5 1144.37 239.752 2
-7 0 4 -55.2155 75.5105 6
7 0 -4 77.6822 97.7962 2
-7 0 3 117.622 108.744 6
7 0 -3 -158.778 112.185 2
7 0 -2 21858.6 1008.92 2
-7 0 2 18615.8 918.612 6
7 0 -1 41600.7 1369.6 2
-7 0 1 36207.2 1301.9 6
7 0 0 7449.3 567.522 2
-7 0 0 6807.59 566.709 6
-7 0 -1 1567.97 290.815 6
7 0 1 2003.15 284.653 2
-7 0 -2 2912.11 407.892 3
7 0 2 3625.29 370.349 2
-7 0 -2 3134.89 406.985 6
-7 0 -3 281.498 123.429 6
7 0 3 393.964 119.187 2
-7 0 -3 329.162 144.681 3
-7 0 -4 455.614 173.327 6
-7 0 -4 656.155 206.364 3
-7 0 -4 723.166 260.418 7
-7 0 -5 -106.309 125.448 6
-7 0 -5 117.271 121.353 3
-7 0 -5 -37.4839 79.5481 7
-7 0 -6 763.763 246.545 6
-7 0 -6 581.559 189.818 3
-7 0 -6 889.913 315.219 7
-7 -1 11 34.1795 69.3758 5
7 1 -11 32.2987 84.0438 2
-7 -1 10 55.7933 54.0615 5
7 1 -10 126.663 131.67 2
-7 -1 9 310.632 128.081 5
7 1 -9 343.211 127.323 2
-7 -1 9 425.721 225.813 1
-7 -1 8 4871.12 480.234 5
-7 -1 8 5819.67 635.635 1
7 1 -8 6054.37 620.927 2
-7 -1 7 4351.66 435.397 5
7 1 -7 4822.99 530.245 2
-7 -1 7 5923.17 611.504 1
-7 -1 6 731.905 174.662 6
-7 -1 6 434.135 152.562 1
7 1 -6 464.712 158.451 2
-7 -1 5 422.519 139.047 6
7 1 -5 548.714 172.198 2
-7 -1 4 28.7152 72.6292 6
7 1 -4 -32.2527 109.028 2
7 1 -3 7943.62 625.826 2
-7 -1 3 6936.97 566.315 6
-7 -1 2 1262.01 266.161 6
7 1 -2 1082.17 215.861 2
-7 -1 1 97.3614 134.4 6
7 1 -1 43.4096 79.3012 2
7 1 0 4096.14 434.023 2
-7 -1 0 3731.58 447.761 6
-7 -1 -1 -72.6088 112.355 6
7 1 1 -46.1547 52.1328 2
-7 -1 -2 1514.21 321.922 6
-7 -1 -2 1243.78 273.933 3
7 1 2 1633.79 265.627 2
7 1 2 1587.79 254.383 4
-7 -1 -3 950.017 254.188 6
-7 -1 -3 874.958 239.658 3
-7 -1 -4 1496.1 330.122 6
-7 -1 -4 1044.49 271.053 3
-7 -1 -5 25.5177 118.333 6
-7 -1 -5 192.573 110.937 3
-7 -1 -5 317.567 197.261 7
-7 -1 -6 32.6124 96.2648 3
-7 -1 -6 -137.123 155.199 7
7 2 -11 -2.20923 74.1231 2
-7 -2 11 96.4725 96.4298 5
-7 -2 10 65.9605 116.178 1
7 2 -10 51.543 105.066 2
-7 -2 10 85.2187 91.8012 5
-7 -2 9 13.1389 132.35 1
7 2 -9 242.666 149.13 2
-7 -2 9 -171.377 117.159 5
7 2 -8 437.707 177.205 2
-7 -2 8 507.33 141.287 5
-7 -2 8 740.477 252.797 1
7 2 -7 490.401 194.177 2
-7 -2 7 553.685 149.531 5
-7 -2 7 522.577 178.164 1
-7 -2 6 -19.0181 89.3201 6
7 2 -6 33.6073 66.6232 2
7 2 -5 -3.65625 88.0406 2
-7 -2 5 29.1588 102.25 6
7 2 -4 10208.8 760.16 2
-7 -2 4 8994.95 660.403 6
7 2 -3 33198.9 1346.03 2
-7 -2 3 30478 1251.49 6
7 2 -2 14861.6 898.925 2
-7 -2 2 13724.2 851.08 6
7 2 -1 378.057 121.757 2
-7 -2 1 288.039 164.474 6
7 2 0 704.715 181.948 2
-7 -2 0 642.656 175.702 6
7 2 0 737.823 208.891 4
7 2 1 448.366 144.503 4
-7 -2 -1 517.454 185.003 6
-7 -2 -2 138.213 104 3
7 2 2 210.004 100.835 4
-7 -2 -2 -95.2687 136.72 6
-7 -2 -3 232.604 133.075 3
-7 -2 -3 436.979 190.533 6
-7 -2 -4 229.246 128.13 3
-7 -2 -4 304.352 136.798 6
-7 -2 -5 182.321 134.302 3
-7 -2 -5 398.212 202.83 7
-7 -2 -5 167.605 125.533 6
-7 -2 -6 142.878 147.422 6
-7 -2 -6 107.477 158.104 3
-7 -2 -6 571.102 271.909 7
7 3 -10 799.021 246.71 2
-7 -3 10 906.026 346.811 1
7 3 -9 243.255 158.361 2
-7 -3 9 167.115 146.89 1
-7 -3 8 255.057 147.318 1
7 3 -8 129.057 104.178 2
7 3 -7 358.256 163.672 2
-7 -3 7 247.321 119.518 1
7 3 -6 -165.755 128.629 2
-7 -3 6 -7.8962 90.9441 6
7 3 -5 170.266 101.075 2
-7 -3 5 -140.258 132.428 6
7 3 -4 2173.71 354.86 2
-7 -3 4 2352.77 358.32 6
7 3 -3 74.3202 67.5308 2
7 3 -3 131.227 89.9457 4
7 3 -2 206.83 100.517 2
-7 -3 2 234.196 173.287 6
7 3 -2 85.3899 84.9508 4
7 3 -1 24.4705 58.6181 4
-7 -3 1 -62.9577 153.803 6
7 3 0 -62.664 40.1531 4
-7 -3 0 -115.401 138.091 6
7 3 1 2476.02 369.931 4
-7 -3 -1 2619.36 425.298 6
-7 -3 -2 447.71 178.756 3
7 3 2 354.487 133.179 4
-7 -3 -2 145.637 140.852 6
-7 -3 -3 137.088 91.9269 3
-7 -3 -3 219.09 139.872 6
-7 -3 -4 -133.003 112.003 3
-7 -3 -4 -257.624 213.591 6
-7 -3 -5 8.96533 85.2681 3
-7 -3 -5 239.182 156.837 7
-7 -3 -5 -32.3218 153.218 6
-7 -4 9 132.883 166.832 1
7 4 -9 -140.568 98.9802 4
-7 -4 8 -157.7 200.591 1
7 4 -8 -57.8379 115.19 4
-7 -4 7 5.39123 115.038 1
7 4 -7 37.8078 95.4861 4
-7 -4 6 -128.043 143.317 6
7 4 -6 187.501 125.176 4
7 4 -5 8871.44 814.691 4
-7 -4 5 11669.8 840.375 6
7 4 -4 12022.2 936.96 4
-7 -4 4 13189.7 904.565 6
-7 -4 3 347.073 180.963 6
7 4 -3 493.488 187.53 4
7 4 -2 972.608 262.958 4
-7 -4 2 861.956 235.888 6
7 4 -1 33.8356 46.9088 4
-7 -4 1 -23.9201 108.13 6
7 4 0 88.1775 90.0278 4
-7 -4 0 63.1452 126.126 6
7 4 1 277.005 137.075 4
-7 -4 -1 473.454 234.891 6
-7 -4 -2 244.652 151.471 3
7 4 2 217.904 131.43 4
-7 -4 -2 470.141 228.202 6
-7 -4 -3 -4.23991 102.586 3
-7 -4 -3 548.885 217.979 6
-7 -4 -4 -137.3 119.598 3
-7 -4 -4 141.521 129.116 6
-7 -5 8 106.563 165.484 1
7 5 -8 -27.6882 128.88 4
-7 -5 7 87.7817 95.2392 1
7 5 -7 87.2759 107.591 4
7 5 -6 46.4565 114.566 4
-7 -5 6 -132.378 103.298 6
7 5 -5 -17.9056 110.059 4
-7 -5 5 1071.83 249.401 6
7 5 -4 411.716 198.088 4
-7 -5 4 469.077 185.188 6
7 5 -3 41.3319 80.0136 4
-7 -5 3 84.7881 88.7629 6
7 5 -2 149.851 154.077 4
-7 -5 2 246.867 150.441 6
7 5 -1 543.178 195.85 4
-7 -5 1 62.368 105.458 6
7 5 0 2648.48 440.672 4
-7 -5 0 2446.92 423.112 6
7 5 1 204.208 138.223 4
-7 -5 -1 596.63 264.008 6
-7 -5 -2 -91.8403 147.582 3
7 5 2 -100.617 96.8943 4
-7 -5 -2 -134.692 175.035 6
-7 -5 -3 53.6579 101.541 3
-7 -5 -3 27.064 156.156 6
-7 -6 7 622.06 287.38 1
7 6 -7 57.2649 178.158 4
7 6 -6 1572.73 493.89 4
7 6 -5 622.924 241.919 4
-7 -6 5 850.791 239.342 6
-7 -6 4 57.857 102.77 6
7 6 -4 -245.961 176.588 4
-7 -6 3 -174.015 142.078 6
7 6 -3 -36.5473 90.9544 4
7 6 -2 -99.5834 107.295 4
-7 -6 2 45.2613 77.944 6
7 6 -1 -118.438 117.567 4
-7 -6 1 57.5717 112.072 6
7 6 0 -15.8738 62.1076 4
-7 -6 0 197.555 120.241 6
7 6 1 -207.944 147.138 4
-7 -6 -1 400.552 195.709 6
7 7 -3 93.4348 152.266 4
8 -6 -6 169.926 255.824 2
8 -6 -5 -120.054 141.311 2
-8 6 5 158.159 105.74 7
8 -6 -4 1245.52 357.49 2
-8 6 4 804.03 245.583 7
8 -6 -3 384.251 165.135 2
-8 6 3 184.283 125.958 7
8 -6 -2 135.997 131.915 2
-8 6 2 315.008 159.592 7
8 -6 -1 -29.2711 98.4949 2
-8 6 1 -301.767 180.534 7
-8 6 0 143.584 126.886 7
8 -6 0 -168.698 149.254 2
-8 6 -1 186.202 124.532 7
8 -6 1 -4.22788 89.9155 2
8 -5 -7 -6.74038 137.483 2
8 -5 -6 703.983 238.323 2
8 -5 -5 548.212 238.433 2
8 -5 -4 -10.8605 100.676 2
8 -5 -3 1883.54 371.86 2
-8 5 2 97.3801 99.3635 7
8 -5 -2 -1.79201 97.5561 2
-8 5 1 1335.81 359.389 7
8 -5 -1 1418.16 324.037 2
-8 5 0 644.8 253.305 7
8 -5 0 477.715 195.364 2
-8 5 -1 1620.01 411.868 7
8 -5 1 1545.12 298.591 2
-8 5 -2 536.931 258.741 7
8 -5 2 387.422 148.059 2
-8 5 -3 199.387 189.228 7
8 -4 -8 1542.56 338.891 2
8 -4 -7 109.177 93.9445 2
8 -4 -6 2807.73 476.823 2
8 -4 -5 284.68 188.923 2
8 -4 -4 1305.99 293.504 2
8 -4 -3 1348.2 288.48 2
8 -4 -2 103.401 96.2245 2
8 -4 -1 1873.58 329.748 2
-8 4 0 179.405 155.778 7
8 -4 0 184.353 83.835 2
-8 4 -1 1462.47 391.481 7
8 -4 1 1193.53 242.527 2
-8 4 -2 -24.6004 112.824 7
8 -4 2 299.405 131.088 2
-8 4 -3 377.222 218.272 7
-8 4 -4 545.019 281.928 7
8 -3 -9 170.908 127.649 2
8 -3 -8 105.862 99.2291 2
8 -3 -7 689.606 225.318 2
8 -3 -6 785.32 264.003 2
-8 3 5 3224.09 401.51 1
8 -3 -5 3497.47 459.634 2
-8 3 4 563.45 167.01 1
8 -3 -4 477.228 151.631 2
8 -3 -3 1022.93 233.205 2
-8 3 3 988.573 201.146 1
8 -3 -2 74.0677 125.892 2
8 -3 -1 5047.93 525.399 2
8 -3 0 2623.67 369.216 2
-8 3 -1 200.934 119.638 6
-8 3 -1 266.392 173.127 7
8 -3 1 214.016 122.637 2
-8 3 -2 295.518 152.599 6
8 -3 2 371.016 128.809 2
-8 3 -2 267.644 153.42 7
-8 3 -3 -103.209 79.0716 6
-8 3 -3 -7.23245 125.258 7
-8 3 -4 906.279 252.024 6
-8 3 -4 1371.12 438.94 7
8 -2 -10 1069.08 299.471 2
8 -2 -9 165.75 121.882 2
8 -2 -8 405.647 161.943 2
-8 2 7 1756.76 334.584 1
8 -2 -7 1685.18 357.266 2
-8 2 6 3654.85 467.62 1
8 -2 -6 3381.72 479.329 2
-8 2 5 13540.2 840.076 1
8 -2 -5 14987.7 983.177 2
-8 2 4 20.5943 82.2178 1
8 -2 -4 65.7727 133.06 2
-8 2 3 92.5639 87.4249 6
8 -2 -3 431.524 186.583 2
-8 2 2 1295.64 285.782 6
8 -2 -2 1632.3 304.902 2
-8 2 1 120.139 62.8902 6
8 -2 -1 10.1336 109.911 2
-8 2 0 1762.88 332.607 6
8 -2 0 2293.72 336.228 2
-8 2 -1 166.685 107.76 6
8 -2 1 341.92 145.011 2
-8 2 -2 418.743 162.3 6
8 -2 2 367.979 123.503 2
-8 2 -2 812.64 295.543 7
-8 2 -3 443.716 169.86 6
-8 2 -3 662.599 251.617 7
-8 2 -4 907.834 246.704 3
-8 2 -4 933.591 280.029 6
-8 2 -4 1476.14 428.911 7
-8 2 -5 37.2488 69.2927 6
-8 2 -5 194.182 131 3
8 -1 -10 222.388 132.926 2
8 -1 -9 473.953 196.281 2
-8 1 8 190.422 68.7215 1
8 -1 -8 226.136 168.192 2
-8 1 7 4960.93 581.526 1
8 -1 -7 4595.36 563.718 2
8 -1 -6 3170.85 440.596 2
-8 1 6 2893.72 425.085 1
8 -1 -5 2557.55 396.656 2
-8 1 5 2791.02 380.917 1
-8 1 5 2102.42 322.292 6
-8 1 4 -41.87 67.2518 6
8 -1 -4 -73.6126 138.414 2
-8 1 3 1362.38 267.009 6
8 -1 -3 1946.99 334.848 2
-8 1 2 1502.94 277.26 6
8 -1 -2 2086.7 341.015 2
-8 1 1 134.541 71 6
8 -1 -1 84.9114 81.5727 2
-8 1 0 176.883 88.6 6
8 -1 0 496.551 152.936 2
-8 1 -1 18.7858 90.281 6
8 -1 1 7.35818 68.4362 2
-8 1 -2 244.038 118.37 6
8 -1 2 16.1661 42.1575 2
-8 1 -3 860.717 250.069 6
-8 1 -3 999.387 325.654 7
-8 1 -3 662.329 211.248 3
-8 1 -4 152.379 126.996 6
-8 1 -4 389.491 195.221 3
-8 1 -4 399.23 235.276 7
-8 1 -5 -55.5914 85.3256 6
-8 1 -5 4.96895 74.6612 3
-8 1 -5 5.07193 120.584 7
-8 0 10 -235.875 136.34 5
8 0 -10 135.741 150.164 2
-8 0 9 128.048 145.451 1
8 0 -9 233.954 160.796 2
-8 0 8 368.798 122.463 1
8 0 -8 336.201 185.973 2
-8 0 7 6130.54 647.424 1
8 0 -7 5782.34 607.132 2
8 0 -6 5078.01 565.571 2
-8 0 6 5716.88 604.01 1
-8 0 6 4402.24 451.63 6
-8 0 5 5.67911 63.9197 6
8 0 -5 -47.6804 116.026 2
-8 0 4 2055.48 313.45 6
8 0 -4 2459.92 374.164 2
-8 0 3 840.252 213.478 6
8 0 -3 1301.51 282.078 2
8 0 -2 4647.1 500.31 2
-8 0 2 3597.76 447.989 6
-8 0 1 275.066 111.291 6
8 0 -1 533.611 173.286 2
-8 0 0 2072.3 357.394 6
8 0 0 2327.78 338.926 2
-8 0 -1 -145.666 123.693 6
8 0 1 120.844 102.761 2
-8 0 -2 109.836 79.8377 6
8 0 2 54.0603 39.2297 2
-8 0 -3 863.632 244.278 3
-8 0 -3 552.724 198.559 6
-8 0 -4 539.783 234.154 6
-8 0 -4 550.363 224.098 3
-8 0 -4 720.268 319.387 7
-8 0 -5 185.054 184.68 6
-8 0 -5 94.1688 119.515 3
-8 0 -5 82.0366 166.082 7
-8 -1 10 33.9207 89.943 1
8 1 -10 98.9096 87.5654 2
-8 -1 10 45.376 56.6143 5
-8 -1 9 82.066 188.079 1
-8 -1 9 482.319 161.636 5
8 1 -9 596.457 209.257 2
8 1 -8 2766.36 438.486 2
-8 -1 8 2947.45 479.436 1
8 1 -7 1428.7 307.637 2
-8 -1 7 1594.4 338.588 1
-8 -1 6 103.307 110.438 6
8 1 -6 -104.216 125.893 2
-8 -1 6 3.09415 70.4124 1
-8 -1 5 628.112 177.084 6
8 1 -5 682.102 212.71 2
-8 -1 4 172.229 116.832 6
8 1 -4 279.368 148.639 2
-8 -1 3 -132.422 147.52 6
8 1 -3 177.777 101.994 2
-8 -1 2 663.4 216.098 6
8 1 -2 965.18 242.242 2
-8 -1 1 1434.2 303.898 6
8 1 -1 1604.18 296.667 2
-8 -1 0 164.992 170.98 6
8 1 0 -23.8878 44.4017 2
-8 -1 -1 1182.12 299.775 6
8 1 1 1210.22 256.895 2
-8 -1 -2 331.624 194.123 6
8 1 2 52.687 74.6507 2
-8 -1 -3 233.31 129.474 6
-8 -1 -3 72.0264 100.095 3
-8 -1 -4 193.554 135.816 6
-8 -1 -4 -12.7403 104.899 3
-8 -1 -4 -220.225 200.757 7
8 2 -9 1144.56 306.18 2
-8 -2 9 649.538 346.836 1
8 2 -8 1565.23 340.868 2
-8 -2 8 1341.83 392.399 1
-8 -2 7 353.92 151.285 1
8 2 -7 364.656 167.219 2
-8 -2 6 25.9365 102.008 6
8 2 -6 -93.472 89.9468 2
-8 -2 5 2326.64 353.799 6
8 2 -5 2732.68 427.899 2
-8 -2 4 328.909 142.886 6
8 2 -4 468.531 174.231 2
8 2 -3 6222.48 629.402 2
-8 -2 3 5392.88 584.576 6
8 2 -2 -90.1032 92.0459 2
-8 -2 2 -298.043 154.07 6
8 2 -1 295.152 132.64 2
-8 -2 1 72.0586 112.236 6
8 2 0 -89.1268 94.3704 2
8 2 0 68.2986 60.2882 4
-8 -2 0 1.76735 129.101 6
8 2 1 588.151 181.153 4
-8 -2 -1 1028.5 283.632 6
-8 -2 -2 756.46 243.126 6
-8 -2 -3 416.29 241.976 6
-8 -2 -3 -89.6601 176.003 3
-8 -2 -4 468.744 213.645 6
-8 -2 -4 72.198 139.438 3
8 3 -9 1193.87 288.713 2
-8 -3 9 359.603 290.898 1
8 3 -8 -0.33926 61.9933 2
-8 -3 8 -29.7529 150.948 1
8 3 -7 -106.151 142.747 2
-8 -3 7 24.315 134.322 1
8 3 -6 279.933 121.568 2
-8 -3 6 760.481 235.877 6
8 3 -5 290.027 136.653 2
-8 -3 5 201.241 118.121 6
8 3 -4 309.786 128.758 2
-8 -3 4 802.362 226.709 6
8 3 -4 532.996 162.618 4
8 3 -3 221.694 115.216 2
8 3 -3 315.178 138.955 4
8 3 -2 1120.21 269.227 2
8 3 -2 717.92 222.707 4
-8 -3 2 1281.51 289.604 6
8 3 -1 -11.799 78.6082 4
-8 -3 1 219.591 102.829 6
8 3 0 3334.7 462.735 4
-8 -3 0 4132.26 563.472 6
8 3 1 -46.126 73.6727 4
-8 -3 -1 268.53 230.154 6
-8 -3 -2 433.873 222.956 6
-8 -3 -3 -13.7083 65.8899 3
-8 -3 -3 143.591 140.997 6
-8 -4 8 30.4193 113.789 1
8 4 -8 30.2919 80.4863 4
-8 -4 7 -6.22465 124.917 1
8 4 -7 46.3333 117.546 4
8 4 -6 -31.0003 87.1964 4
-8 -4 6 118.433 106.676 6
8 4 -5 3574.82 553.721 4
-8 -4 5 3594.13 476.938 6
8 4 -4 1431.81 327.991 4
-8 -4 4 1651.4 348.123 6
8 4 -3 97.4933 131.74 4
-8 -4 3 -74.6876 108.046 6
8 4 -2 55.5491 105.099 4
-8 -4 2 39.5885 106.175 6
8 4 -1 420.389 174.222 4
-8 -4 1 541.684 238.185 6
8 4 0 910.629 259.715 4
-8 -4 0 1139.31 306.145 6
8 4 1 367.693 167.449 4
-8 -4 -1 100.225 136.049 6
-8 -4 -2 555.172 235.19 6
8 5 -6 322.438 249.021 4
8 5 -5 -0.37119 91.8961 4
-8 -5 5 253.368 182.056 6
8 5 -4 53.8852 127.711 4
-8 -5 4 355.796 204.134 6
8 5 -3 -19.5388 106.144 4
-8 -5 3 89.4283 173.66 6
8 5 -2 90.2241 76.108 4
-8 -5 2 150.473 134.634 6
8 5 -1 229.518 150.014 4
-8 -5 1 99.4661 166.39 6
8 5 0 106.872 134.011 4
-8 -5 0 61.5462 150.216 6
9 -5 -5 490.93 273.104 2
9 -5 -4 1216.6 390.158 2
-9 5 3 36.8009 92.439 7
9 -5 -3 39.1311 155.024 2
-9 5 2 -190.113 167.314 7
9 -5 -2 -8.4607 125.968 2
-9 5 1 535.827 229.15 7
9 -5 -1 507.91 188.949 2
9 -4 -6 1278.48 416.23 2
9 -4 -5 283.485 169.688 2
9 -4 -4 412.975 191.051 2
9 -4 -3 257.566 111.546 2
9 -4 -2 172.282 113.378 2
-9 4 1 -79.0217 108.286 7
9 -4 -1 -116.482 131.251 2
-9 4 0 37.4658 97.4052 7
9 -4 0 -39.5596 126.377 2
-9 4 -1 483.353 246.536 7
9 -4 1 84.6846 78.5425 2
9 -3 -7 29.2589 100.433 2
-9 3 6 515.493 184.951 1
9 -3 -6 749.195 236.998 2
-9 3 5 2052.45 351.723 1
9 -3 -5 2379.78 431.501 2
9 -3 -4 46.1561 138.267 2
9 -3 -3 1227.91 303.333 2
9 -3 -2 229.116 142.128 2
9 -3 -1 575.352 215.037 2
9 -3 0 985.029 226.524 2
9 -3 1 7.31808 62.7932 2
-9 3 -1 20.9116 113.709 7
-9 3 -2 81.0182 92.9985 6
-9 3 -2 114.237 111.019 7
9 -2 -8 582.891 195.75 2
9 -2 -7 445.913 192.876 2
-9 2 7 280.929 146.414 1
-9 2 6 1028.48 267.37 1
9 -2 -6 990.667 245.316 2
-9 2 5 30.6744 98.5357 1
9 -2 -5 -181.574 163.935 2
-9 2 4 80.2423 105.079 1
9 -2 -4 -41.9736 131.799 2
-9 2 3 98.5484 66.0637 6
9 -2 -3 235.426 165.373 2
-9 2 2 288.018 151.913 6
9 -2 -2 106.673 93.4283 2
-9 2 1 186.027 67.6596 6
9 -2 -1 355.154 141.282 2
-9 2 0 227.507 138.381 6
9 -2 0 744.105 206.994 2
-9 2 -1 144.134 133.276 6
9 -2 1 82.6203 79.9608 2
-9 2 -2 474.311 220.762 6
-9 2 -2 77.0542 113.246 7
9 -1 -8 111.347 139.012 2
-9 1 8 29.5204 119.896 1
-9 1 7 82.6828 86.1623 1
9 -1 -7 65.5402 120.894 2
-9 1 6 86.4418 104.199 1
9 -1 -6 48.96 132.425 2
-9 1 5 324.125 151.362 6
9 -1 -5 526.128 201.699 2
-9 1 5 613.101 187.335 1
-9 1 4 357.697 145.069 6
9 -1 -4 483.348 180.856 2
-9 1 3 1470.29 313.88 6
9 -1 -3 2173.13 367.665 2
-9 1 2 2123.32 356.207 6
9 -1 -2 2553.08 395.738 2
-9 1 1 337.371 141.958 6
9 -1 -1 943.234 247.443 2
-9 1 0 468.445 170.662 6
9 -1 0 208.817 105.773 2
-9 1 -1 259.378 154.766 6
9 -1 1 636.624 183.169 2
-9 1 -2 871.94 245.201 6
-9 0 8 -19.1076 142.062 1
9 0 -8 -16.9118 92.0908 2
9 0 -7 -8.18947 122.071 2
-9 0 7 -297.92 203.097 1
-9 0 6 259.737 130.082 6
-9 0 6 107.627 83.6488 1
9 0 -6 402.237 204.571 2
-9 0 5 186.038 103.451 6
9 0 -5 236.153 137.157 2
-9 0 4 45.9569 90.5437 6
9 0 -4 -67.6406 104.76 2
-9 0 3 24.3611 75.909 6
9 0 -3 151.775 73.3598 2
-9 0 2 330.101 177.779 6
9 0 -2 200.733 125.197 2
-9 0 1 53.1529 79.1309 6
9 0 -1 20.0648 68.9671 2
-9 0 0 720.323 223.717 6
9 0 0 551.585 173.288 2
-9 0 -1 1535.9 344.863 6
9 0 1 2089.47 338.321 2
-9 0 -2 -29.3914 137.64 6
9 1 -8 345.782 195.599 2
-9 -1 8 148.869 174.45 1
9 1 -7 1269.69 306.485 2
-9 -1 7 1026.89 364.325 1
-9 -1 6 309.821 153.599 6
9 1 -6 92.6565 87.4975 2
-9 -1 5 1072.61 246.842 6
9 1 -5 1685.75 352.742 2
-9 -1 4 1486.22 308.569 6
9 1 -4 1901.76 362.679 2
-9 -1 3 588.41 221.946 6
9 1 -3 1013.89 269.472 2
-9 -1 2 29.9328 115.945 6
9 1 -2 79.4251 83.9617 2
-9 -1 1 100.244 101.432 6
9 1 -1 -167.668 124.285 2
-9 -1 0 576.19 208.375 6
9 1 0 496.294 184.191 2
-9 -1 -1 378.789 188.46 6
9 1 1 453.608 162.066 2
-9 -1 -2 -240.716 191.147 6
-9 -2 8 -29.9557 112.349 1
9 2 -8 369.321 179.337 2
9 2 -7 644.957 229.322 2
-9 -2 7 94.5813 219.88 1
-9 -2 6 213.61 125.805 6
9 2 -6 432.883 199.555 2
-9 -2 5 371.638 165.491 6
9 2 -5 485.425 192.653 2
-9 -2 4 150.128 172.223 6
9 2 -4 236.584 156.852 2
-9 -2 3 -239.422 162.694 6
9 2 -3 144.015 97.8093 2
-9 -2 2 915.922 274.538 6
9 2 -2 1177.64 296.747 2
-9 -2 1 316.514 209.235 6
9 2 -1 221.5 92.4528 2
9 2 -1 212.482 118.334 4
-9 -2 0 390.758 188.82 6
9 2 0 212.631 133.8 4
-9 -2 -1 -108.138 169.876 6
9 3 -7 126.242 149.535 2
-9 -3 7 90.1939 133.962 1
9 3 -6 617.409 300.128 2
-9 -3 5 -120.72 113.57 6
9 3 -5 10.4191 87.6373 4
-9 -3 4 -179.369 161.998 6
9 3 -4 -6.45334 95.7349 2
9 3 -4 36.7004 57.4656 4
9 3 -3 355.236 166.574 2
9 3 -3 150.943 121.232 4
-9 -3 3 -158.208 176.042 6
9 3 -2 610.864 236.763 4
-9 -3 2 327.257 168.232 6
9 3 -1 53.5688 78.4947 4
-9 -3 1 470.48 221.113 6
9 3 0 429.131 185.839 4
-9 -3 0 563.037 255.509 6
9 4 -4 136.387 135.029 4
-9 -4 4 -285.144 209.422 6
9 4 -3 418.68 229.564 4
-9 -4 3 731.436 263.952 6
9 4 -2 -74.5848 131.444 4
-9 -4 2 115.238 187.448 6
-10 2 4 -131.229 124.43 1
10 -2 -4 29.8585 128.319 2
10 -2 -3 135.504 163.522 2
-10 2 2 22.831 83.9388 6
10 -2 -2 81.0891 110.415 2
-10 1 5 292.755 136.921 6
10 -1 -5 594.827 223.853 2
-10 1 5 584.686 197.889 1
-10 1 4 37.4042 100.012 6
10 -1 -4 82.4917 83.9507 2
-10 1 3 362.924 163.62 6
10 -1 -3 905.069 267.967 2
-10 1 2 -488.813 205.614 6
10 -1 -2 -98.5238 145.655 2
-10 0 5 118.433 87.3645 6
10 0 -5 -12.0726 72.2116 2
-10 0 4 128.308 107.259 6
10 0 -4 31.242 86.5145 2
-10 0 3 26.4013 94.3288 6
10 0 -3 -96.4195 132.888 2
-10 0 2 155.63 140.387 6
10 0 -2 3.42272 85.3918 2
