#------------------------------------------------------------------------------
#$Date: 2019-11-24 03:20:29 +0200 (Sun, 24 Nov 2019) $
#$Revision: 236462 $
#$URL: file:///home/coder/svn-repositories/cod/cif/7/23/67/7236728.cif $
#------------------------------------------------------------------------------
#
# This file is available in the Crystallography Open Database (COD),
# http://www.crystallography.net/
#
# All data on this site have been placed in the public domain by the
# contributors.
#
data_7236728
loop_
_publ_author_name
'Lei, Yunxiang'
'Zhou, Yibin'
'Qian, Lebin'
'Wang, Yuxiang'
'Liu, Miaochang'
'Huang, Xiaobo'
'Wu, Ge'
'Wu, Huayue'
'Ding, Jinchang'
'Cheng, Yixiang'
_publ_section_title
;
 Polymorphism and mechanochromism of N-alkylated 1,4-dihydropyridine
 derivatives containing different electron-withdrawing end groups
;
_journal_issue                   21
_journal_name_full               'Journal of Materials Chemistry C'
_journal_page_first              5183
_journal_paper_doi               10.1039/C7TC00362E
_journal_volume                  5
_journal_year                    2017
_chemical_formula_sum            'C12 H13 N3'
_chemical_formula_weight         199.25
_space_group_crystal_system      triclinic
_space_group_IT_number           2
_space_group_name_Hall           '-P 1'
_space_group_name_H-M_alt        'P -1'
_atom_sites_solution_hydrogens   geom
_audit_creation_method           SHELXL-2013
_audit_update_record
;
2016-08-08 deposited with the CCDC.
2017-05-09 downloaded from the CCDC.
;
_cell_angle_alpha                98.929(9)
_cell_angle_beta                 91.731(9)
_cell_angle_gamma                103.705(9)
_cell_formula_units_Z            2
_cell_length_a                   7.084(3)
_cell_length_b                   7.646(3)
_cell_length_c                   10.376(5)
_cell_measurement_reflns_used    959
_cell_measurement_temperature    293(2)
_cell_measurement_theta_max      54.045
_cell_measurement_theta_min      5.562
_cell_volume                     538.1(4)
_computing_cell_refinement       'Bruker SMART'
_computing_data_collection       'Bruker SMART'
_computing_data_reduction        'Bruker SHELXTL'
_computing_molecular_graphics    'Bruker SHELXTL'
_computing_publication_material  'Bruker SHELXTL'
_computing_structure_refinement  'SHELXL-2013 (Sheldrick, 2013)'
_computing_structure_solution    'Bruker SHELXTL'
_diffrn_ambient_temperature      293(2)
_diffrn_measured_fraction_theta_full 0.998
_diffrn_measured_fraction_theta_max 0.998
_diffrn_measurement_device_type  'CCD area detector'
_diffrn_measurement_method       'phi and omega scans'
_diffrn_radiation_type           MoK\a
_diffrn_radiation_wavelength     0.71073
_diffrn_reflns_av_R_equivalents  0.0179
_diffrn_reflns_av_unetI/netI     0.0339
_diffrn_reflns_Laue_measured_fraction_full 0.998
_diffrn_reflns_Laue_measured_fraction_max 0.998
_diffrn_reflns_limit_h_max       8
_diffrn_reflns_limit_h_min       -8
_diffrn_reflns_limit_k_max       7
_diffrn_reflns_limit_k_min       -9
_diffrn_reflns_limit_l_max       12
_diffrn_reflns_limit_l_min       -12
_diffrn_reflns_number            3089
_diffrn_reflns_point_group_measured_fraction_full 0.998
_diffrn_reflns_point_group_measured_fraction_max 0.998
_diffrn_reflns_theta_full        25.242
_diffrn_reflns_theta_max         25.498
_diffrn_reflns_theta_min         1.992
_exptl_absorpt_coefficient_mu    0.076
_exptl_absorpt_correction_T_max  0.7457
_exptl_absorpt_correction_T_min  0.3546
_exptl_absorpt_correction_type   multi-scan
_exptl_absorpt_process_details   sadabs
_exptl_crystal_colour            green
_exptl_crystal_density_diffrn    1.230
_exptl_crystal_description       prismatic
_exptl_crystal_F_000             212
_exptl_crystal_size_max          0.200
_exptl_crystal_size_mid          0.170
_exptl_crystal_size_min          0.110
_refine_diff_density_max         0.184
_refine_diff_density_min         -0.176
_refine_diff_density_rms         0.046
_refine_ls_extinction_coef       0.142(15)
_refine_ls_extinction_expression Fc^*^=kFc[1+0.001xFc^2^\l^3^/sin(2\q)]^-1/4^
_refine_ls_extinction_method     SHELXL
_refine_ls_goodness_of_fit_ref   1.072
_refine_ls_hydrogen_treatment    constr
_refine_ls_matrix_type           full
_refine_ls_number_parameters     140
_refine_ls_number_reflns         1996
_refine_ls_number_restraints     0
_refine_ls_restrained_S_all      1.072
_refine_ls_R_factor_all          0.0599
_refine_ls_R_factor_gt           0.0481
_refine_ls_shift/su_max          0.000
_refine_ls_shift/su_mean         0.000
_refine_ls_structure_factor_coef Fsqd
_refine_ls_weighting_details
'w=1/[\s^2^(Fo^2^)+(0.0659P)^2^+0.0598P] where P=(Fo^2^+2Fc^2^)/3'
_refine_ls_weighting_scheme      calc
_refine_ls_wR_factor_gt          0.1216
_refine_ls_wR_factor_ref         0.1319
_reflns_Friedel_coverage         0.000
_reflns_number_gt                1569
_reflns_number_total             1996
_reflns_threshold_expression     'I > 2\s(I)'
_cod_data_source_file            c7tc00362e2.cif
_cod_data_source_block           cd16210
_cod_database_code               7236728
_shelx_space_group_comment
; 
The symmetry employed for this shelxl refinement is uniquely defined 
by the following loop, which should always be used as a source of 
symmetry information in preference to the above space-group names. 
They are only intended as comments. 
;
_shelx_estimated_absorpt_t_min   0.985
_shelx_estimated_absorpt_t_max   0.992
_shelxl_version_number           2013-4
_shelx_res_file
; 
TITL cd16210 in P-1 
CELL 0.71073   7.0844   7.6461  10.3759  98.929  91.731 103.705 
ZERR    2.00   0.0031   0.0033   0.0045   0.009   0.009   0.009 
LATT 1 
SFAC C  H  N 
UNIT 24 26 6 
OMIT  -3.00  51.00 
L.S. 10 
ACTA 
BOND  $H 
FMAP 2 
PLAN 20 
conf 
htab 
mpla n1 c1 > c5 
size 0.20 0.17 0.11 
wpdb -1 
WGHT    0.065900    0.059800 
EXTI    0.141848 
FVAR       0.45869 
MOLE 1 
N1    3    0.295348    0.180077    0.748752    11.00000    0.03784    0.03555 = 
         0.03305    0.00384    0.00303    0.00820 
N2    3    0.134547   -0.459710    0.322282    11.00000    0.08182    0.05298 = 
         0.07438   -0.00921   -0.00326    0.01415 
N3    3    0.306641    0.058840    0.169376    11.00000    0.07631    0.09122 = 
         0.03917    0.01703    0.00678    0.01621 
C1    1    0.239629   -0.012340    0.492257    11.00000    0.02895    0.03990 = 
         0.03385    0.00586    0.00240    0.01046 
C2    1    0.202060   -0.099991    0.601969    11.00000    0.03875    0.03107 = 
         0.03960    0.00652    0.00306    0.00905 
AFIX  43 
H2    2    0.156590   -0.226364    0.588686    11.00000   -1.20000 
AFIX   0 
C3    1    0.229780   -0.006789    0.726445    11.00000    0.03537    0.03572 = 
         0.03649    0.00810    0.00333    0.00977 
C4    1    0.319113    0.273605    0.644664    11.00000    0.03237    0.03640 = 
         0.04082    0.00992    0.00670    0.00837 
C5    1    0.291012    0.179988    0.520296    11.00000    0.03730    0.04110 = 
         0.03590    0.01358    0.00689    0.00917 
AFIX  43 
H5    2    0.306243    0.245211    0.451176    11.00000   -1.20000 
AFIX   0 
C6    1    0.224447   -0.109895    0.363607    11.00000    0.03951    0.04665 = 
         0.03355    0.00290    0.00093    0.01194 
C7    1    0.175330   -0.302319    0.339434    11.00000    0.04699    0.05504 = 
         0.03935   -0.00336   -0.00162    0.01456 
C8    1    0.269160   -0.017644    0.256136    11.00000    0.04328    0.06053 = 
         0.03290    0.00040   -0.00071    0.01368 
C9    1    0.189029   -0.106062    0.840185    11.00000    0.06548    0.04455 = 
         0.03932    0.01327    0.00698    0.01271 
AFIX 137 
H9A   2    0.115781   -0.229092    0.809406    11.00000   -1.50000 
H9B   2    0.115370   -0.045004    0.900093    11.00000   -1.50000 
H9C   2    0.309837   -0.107667    0.883897    11.00000   -1.50000 
AFIX   0 
C10   1    0.375310    0.477691    0.670166    11.00000    0.05977    0.03579 = 
         0.05619    0.00796    0.01361    0.00762 
AFIX 137 
H10A  2    0.366356    0.522510    0.589311    11.00000   -1.50000 
H10B  2    0.506620    0.519473    0.708287    11.00000   -1.50000 
H10C  2    0.289044    0.522154    0.729275    11.00000   -1.50000 
AFIX   0 
C11   1    0.342511    0.280117    0.884697    11.00000    0.05192    0.04635 = 
         0.03477    0.00052   -0.00192    0.00477 
AFIX  23 
H11A  2    0.451106    0.384973    0.885192    11.00000   -1.20000 
H11B  2    0.383398    0.200956    0.938559    11.00000   -1.20000 
AFIX   0 
C12   1    0.173414    0.344955    0.944546    11.00000    0.07130    0.05860 = 
         0.04145   -0.00249    0.01230    0.01230 
AFIX 137 
H12A  2    0.143846    0.436558    0.899208    11.00000   -1.50000 
H12B  2    0.207844    0.395695    1.035135    11.00000   -1.50000 
H12C  2    0.061450    0.243679    0.937205    11.00000   -1.50000 
AFIX   0 
HKLF 4 
  
REM  cd16210 in P-1 
REM R1 =  0.0481 for    1569 Fo > 4sig(Fo)  and  0.0599 for all    1996 data 
REM    140 parameters refined using      0 restraints 
  
END 
  
WGHT      0.0659      0.0597 
  
REM No hydrogen bonds found for HTAB generation 
  
REM Highest difference peak  0.184,  deepest hole -0.176,  1-sigma level  0.046 
Q1    1   0.1759  0.3373  1.0544  11.00000  0.05    0.18 
Q2    1   0.2210  0.4843  1.0143  11.00000  0.05    0.17 
Q3    1   0.1909  0.1003  0.7426  11.00000  0.05    0.16 
Q4    1   0.2331 -0.3687  0.2919  11.00000  0.05    0.16 
Q5    1   0.1439 -0.0541  0.6674  11.00000  0.05    0.15 
Q6    1   0.2782 -0.0747  0.4220  11.00000  0.05    0.14 
Q7    1   0.1400 -0.5918  0.3530  11.00000  0.05    0.14 
Q8    1   0.1219 -0.5760  0.2648  11.00000  0.05    0.14 
Q9    1   0.2370  0.5066  0.6927  11.00000  0.05    0.14 
Q10   1   0.2784 -0.1973  0.3562  11.00000  0.05    0.13 
Q11   1  -0.1377 -0.2938  0.8184  11.00000  0.05    0.13 
Q12   1   0.4207  0.1060  0.1022  11.00000  0.05    0.13 
Q13   1   0.3859  0.5491  0.7668  11.00000  0.05    0.12 
Q14   1   0.2939  0.0498  0.5021  11.00000  0.05    0.12 
Q15   1   0.1948  0.2633  0.8847  11.00000  0.05    0.12 
Q16   1   0.2247  0.2399  0.5869  11.00000  0.05    0.12 
Q17   1   0.2693  0.2230  0.7058  11.00000  0.05    0.11 
Q18   1   0.1017  0.2280  0.9626  11.00000  0.05    0.11 
Q19   1   0.3722  0.6526  0.8747  11.00000  0.05    0.11 
Q20   1   0.2124 -0.4965  0.2071  11.00000  0.05    0.11 
;
_shelx_res_checksum              76351
_shelx_hkl_file
; 
  -1   0   0   -0.59    0.06 
  -2   0   0 1000.00   19.43 
  -3   0   0    0.01    0.05 
  -4   0   0   10.58    0.45 
  -5   0   0    0.21    0.10 
  -6   0   0    2.59    0.31 
   6   0   0    2.54    0.19 
  -7   0   0    0.16    0.16 
  -8   0   0    0.79    0.24 
  -9   0   0    0.28    0.22 
   9  -1   0    0.18    0.20 
  -8   1   0    0.76    0.25 
  -7   1   0    0.36    0.18 
  -6   1   0   48.03    1.39 
  -5   1   0    2.21    0.23 
  -4   1   0  426.34    8.53 
  -3   1   0    1.54    0.14 
  -2   1   0  730.83   14.23 
   1  -1   0   83.17    1.82 
   1  -1   0   84.85    1.69 
   0  -1   0  217.88    4.30 
   0  -1   0  217.26    4.58 
  -1  -1   0   59.09    1.25 
  -1  -1   0   58.16    1.32 
   1   1   0   58.46    1.09 
  -2  -1   0   10.61    0.36 
  -2  -1   0    9.93    0.36 
   2   1   0   10.74    0.24 
  -3  -1   0    3.83    0.24 
  -3  -1   0    4.06    0.23 
   3   1   0    3.96    0.14 
  -4  -1   0    0.78    0.15 
   4   1   0    0.97    0.09 
  -5  -1   0    2.76    0.29 
   5   1   0    2.46    0.14 
  -6  -1   0    0.18    0.14 
  -7  -1   0    3.58    0.41 
  -8  -1   0    0.32    0.18 
   8  -2   0   19.52    0.80 
   7  -2   0    1.58    0.24 
  -6   2   0   72.29    1.84 
  -5   2   0    6.35    0.35 
   4  -2   0  131.51    2.76 
   3  -2   0   11.03    0.34 
   3  -2   0   11.03    0.40 
   2  -2   0  128.83    2.82 
   2  -2   0  127.92    2.56 
   1  -2   0   27.07    0.56 
   1  -2   0   25.83    0.67 
   0  -2   0   69.72    1.58 
   0  -2   0   71.21    1.46 
  -1  -2   0   55.63    1.30 
  -1  -2   0   55.26    1.23 
  -2  -2   0    2.89    0.18 
  -2  -2   0    3.01    0.20 
  -3  -2   0   33.14    0.94 
  -3  -2   0   33.32    0.95 
   3   2   0   33.45    0.66 
  -4  -2   0    5.52    0.35 
  -4  -2   0    6.88    0.36 
   4   2   0    6.42    0.20 
  -5  -2   0    7.50    0.45 
  -6  -2   0    0.03    0.11 
  -7  -2   0    1.77    0.32 
  -8  -2   0    0.74    0.26 
   9  -3   0    1.61    0.32 
   8  -3   0    3.92    0.38 
   7  -3   0    2.67    0.27 
   7  -3   0    2.42    0.29 
   6  -3   0    1.79    0.23 
   6  -3   0    1.96    0.20 
   5  -3   0    2.23    0.23 
   5  -3   0    2.64    0.19 
   4  -3   0    8.90    0.31 
   4  -3   0    9.42    0.41 
   3  -3   0    2.41    0.18 
   3  -3   0    2.32    0.12 
   2  -3   0   28.66    0.62 
   2  -3   0   29.04    0.79 
   1  -3   0   99.67    2.27 
   1  -3   0  102.41    2.04 
   0  -3   0    0.46    0.07 
   0  -3   0    0.28    0.07 
  -1  -3   0  151.58    3.37 
  -1  -3   0  153.58    3.15 
  -2  -3   0    5.25    0.28 
  -2  -3   0    5.43    0.29 
  -3  -3   0   33.31    0.98 
  -3  -3   0   34.21    1.00 
  -4  -3   0    4.31    0.31 
  -4  -3   0    3.85    0.33 
  -5  -3   0    2.56    0.29 
  -5  -3   0    2.60    0.32 
  -6  -3   0    0.02    0.12 
  -7  -3   0    0.21    0.15 
  -8  -3   0    0.15    0.22 
   9  -4   0    1.05    0.28 
   8  -4   0    0.40    0.19 
   7  -4   0    0.43    0.16 
   6  -4   0    2.60    0.29 
   5  -4   0   24.64    0.84 
   5  -4   0   24.37    0.65 
   4  -4   0    1.21    0.10 
   4  -4   0    1.19    0.18 
   3  -4   0  109.94    2.21 
   3  -4   0  109.97    2.56 
   2  -4   0    4.00    0.25 
   2  -4   0    4.01    0.15 
   1  -4   0   71.15    1.50 
   1  -4   0   70.84    1.71 
   0  -4   0   37.46    0.91 
   0  -4   0   37.21    1.01 
  -1  -4   0    3.45    0.23 
  -1  -4   0    3.20    0.21 
  -2  -4   0    2.07    0.22 
  -2  -4   0    2.25    0.21 
  -3  -4   0    0.27    0.11 
  -3  -4   0    0.29    0.12 
  -4  -4   0    1.44    0.23 
  -4  -4   0    2.06    0.26 
  -5  -4   0    0.27    0.16 
  -5  -4   0    0.17    0.13 
  -6  -4   0    0.42    0.21 
  -7  -4   0    0.11    0.19 
   9  -5   0    0.66    0.30 
   8  -5   0    0.15    0.21 
   7  -5   0    7.54    0.51 
   6  -5   0    4.58    0.37 
   5  -5   0   23.29    0.84 
   4  -5   0   33.01    1.03 
   3  -5   0   18.16    0.67 
   2  -5   0   20.84    0.52 
   2  -5   0   21.09    0.71 
   1  -5   0    6.20    0.33 
   1  -5   0    6.03    0.25 
   0  -5   0    7.08    0.31 
   0  -5   0    7.03    0.37 
  -1  -5   0    1.37    0.18 
  -1  -5   0    1.14    0.17 
  -2  -5   0    7.94    0.42 
  -2  -5   0    6.46    0.38 
  -3  -5   0    0.46    0.16 
  -3  -5   0    0.37    0.14 
  -4  -5   0    3.16    0.35 
  -4  -5   0    3.61    0.35 
  -5  -5   0    1.90    0.33 
  -5  -5   0    1.39    0.29 
  -6  -5   0    9.21    0.64 
   8  -6   0    2.53    0.39 
   7  -6   0    4.69    0.45 
   6  -6   0    3.06    0.35 
   5  -6   0    1.13    0.23 
   4  -6   0    0.45    0.16 
   3  -6   0    0.26    0.13 
   2  -6   0    2.06    0.24 
   1  -6   0    2.59    0.18 
   1  -6   0    2.35    0.25 
   0  -6   0    6.11    0.32 
   0  -6   0    6.60    0.39 
  -1  -6   0    5.92    0.35 
  -1  -6   0    5.70    0.38 
  -2  -6   0   20.89    0.77 
  -2  -6   0   21.47    0.82 
  -3  -6   0    2.18    0.29 
  -3  -6   0    1.72    0.27 
  -4  -6   0    6.16    0.49 
  -4  -6   0    6.18    0.46 
  -5  -6   0    0.53    0.24 
  -6  -6   0    0.70    0.27 
   8  -7   0    0.53    0.26 
   7  -7   0    0.21    0.22 
   6  -7   0    0.05    0.18 
   5  -7   0    0.07    0.15 
   4  -7   0    0.98    0.22 
   3  -7   0    1.35    0.23 
   2  -7   0    7.02    0.44 
   1  -7   0    4.52    0.35 
   0  -7   0    2.39    0.30 
  -1  -7   0    3.78    0.37 
  -1  -7   0    3.39    0.30 
  -2  -7   0    0.93    0.21 
  -2  -7   0    0.81    0.21 
  -3  -7   0    2.10    0.33 
  -3  -7   0    2.06    0.31 
  -4  -7   0    0.78    0.24 
  -4  -7   0    0.88    0.29 
  -5  -7   0    0.25    0.20 
   7  -8   0    0.41    0.25 
   6  -8   0    2.46    0.38 
   5  -8   0    2.20    0.36 
   4  -8   0    2.17    0.33 
   3  -8   0    1.53    0.27 
   2  -8   0    0.53    0.19 
   1  -8   0    2.44    0.34 
   0  -8   0    0.82    0.22 
  -1  -8   0    1.40    0.29 
  -2  -8   0    0.56    0.23 
  -3  -8   0    0.23    0.21 
   6  -9   0    0.11    0.20 
   5  -9   0    1.51    0.34 
   4  -9   0    0.19    0.18 
   3  -9   0    4.80    0.47 
   2  -9   0    0.68    0.22 
   1  -9   0    1.41    0.28 
   0  -9   0    0.62    0.23 
  -1  -9   0    3.76    0.47 
  -2  -9   0    0.80    0.30 
   3 -10   0    0.98    0.27 
   2 -10   0    0.47    0.22 
   1 -10   1    1.69    0.34 
   2 -10   1    0.12    0.21 
   3 -10   1    0.41    0.24 
  -2  -9   1    1.82    0.40 
  -1  -9   1   -0.03    0.19 
   0  -9   1    0.41    0.22 
   1  -9   1    0.01    0.17 
   2  -9   1    3.59    0.43 
   3  -9   1    0.19    0.17 
   4  -9   1    2.39    0.39 
   5  -9   1   -0.16    0.18 
   6  -9   1    1.36    0.31 
  -3  -8   1    1.00    0.29 
  -2  -8   1    1.92    0.34 
  -1  -8   1   -0.04    0.13 
   0  -8   1    1.07    0.24 
   1  -8   1    0.33    0.16 
   2  -8   1    1.52    0.27 
   3  -8   1    0.03    0.14 
   4  -8   1    4.42    0.42 
   5  -8   1    0.86    0.25 
   6  -8   1    1.07    0.29 
   7  -8   1    0.12    0.20 
  -5  -7   1   -0.01    0.28 
  -5  -7   1   -0.13    0.18 
  -4  -7   1    0.47    0.24 
  -4  -7   1    0.27    0.21 
  -3  -7   1    1.82    0.30 
  -3  -7   1    1.64    0.32 
  -2  -7   1    3.43    0.33 
  -2  -7   1    3.73    0.39 
  -1  -7   1    0.74    0.20 
  -1  -7   1    0.61    0.16 
   0  -7   1   14.00    0.65 
   1  -7   1    1.30    0.24 
   2  -7   1    6.72    0.42 
   3  -7   1    1.47    0.24 
   4  -7   1    0.31    0.16 
   5  -7   1    0.19    0.16 
   6  -7   1    0.30    0.19 
   7  -7   1    0.29    0.22 
   8  -7   1    0.09    0.22 
  -6  -6   1    0.40    0.23 
  -5  -6   1    0.20    0.21 
  -5  -6   1    0.03    0.18 
  -4  -6   1    4.23    0.42 
  -4  -6   1    4.13    0.42 
  -3  -6   1    0.13    0.13 
  -3  -6   1    0.22    0.14 
  -2  -6   1    3.08    0.29 
  -2  -6   1    3.25    0.33 
  -1  -6   1    0.07    0.11 
  -1  -6   1    0.09    0.10 
   0  -6   1    1.42    0.17 
   0  -6   1    1.19    0.20 
   1  -6   1    1.37    0.21 
   2  -6   1    3.07    0.29 
   3  -6   1    2.45    0.26 
   4  -6   1    2.75    0.29 
   5  -6   1    4.36    0.38 
   6  -6   1    2.62    0.34 
   7  -6   1    4.07    0.42 
   8  -6   1    0.44    0.23 
  -6  -5   1    1.07    0.29 
  -6  -5   1    1.11    0.30 
  -5  -5   1    0.23    0.17 
  -5  -5   1    0.51    0.22 
  -4  -5   1    0.02    0.12 
  -4  -5   1   -0.03    0.13 
  -3  -5   1    0.06    0.10 
  -3  -5   1    0.30    0.13 
  -2  -5   1    0.85    0.17 
  -2  -5   1    0.99    0.18 
  -1  -5   1    0.53    0.12 
  -1  -5   1    0.57    0.14 
   0  -5   1    0.58    0.11 
   0  -5   1    0.67    0.14 
   1  -5   1    3.08    0.16 
   1  -5   1    2.50    0.23 
   2  -5   1    3.57    0.25 
   3  -5   1   12.60    0.52 
   4  -5   1    1.86    0.23 
   5  -5   1   10.56    0.51 
   6  -5   1    0.79    0.19 
   7  -5   1    1.64    0.28 
   8  -5   1    0.97    0.26 
   9  -5   1    0.03    0.23 
  -7  -4   1   -0.10    0.19 
  -6  -4   1    1.68    0.33 
  -5  -4   1    0.37    0.18 
  -5  -4   1    0.84    0.22 
  -4  -4   1    0.71    0.19 
  -4  -4   1    0.97    0.21 
  -3  -4   1   10.21    0.48 
  -3  -4   1    9.64    0.47 
  -2  -4   1   14.57    0.57 
  -2  -4   1   14.74    0.55 
  -1  -4   1   35.42    1.01 
  -1  -4   1   35.17    0.92 
   0  -4   1    0.12    0.06 
   0  -4   1    0.06    0.05 
   1  -4   1   42.02    1.12 
   1  -4   1   42.89    0.93 
   2  -4   1   29.83    0.85 
   3  -4   1    0.48    0.12 
   4  -4   1    1.56    0.11 
   4  -4   1    2.03    0.20 
   5  -4   1    1.22    0.19 
   6  -4   1    2.45    0.27 
   7  -4   1    0.14    0.12 
   8  -4   1    2.79    0.34 
  -8  -3   1    0.40    0.24 
  -7  -3   1    0.17    0.17 
  -6  -3   1    2.96    0.39 
  -5  -3   1    4.86    0.38 
  -5  -3   1    4.94    0.42 
  -4  -3   1    0.26    0.12 
  -4  -3   1    0.27    0.12 
  -3  -3   1   18.36    0.66 
  -3  -3   1   18.10    0.65 
  -2  -3   1   84.92    2.05 
  -2  -3   1   86.18    1.95 
  -1  -3   1   11.48    0.39 
  -1  -3   1   11.29    0.42 
   0  -3   1  142.00    3.18 
   0  -3   1  145.21    2.91 
   1  -3   1    8.21    0.31 
   1  -3   1    8.09    0.21 
   2  -3   1    0.05    0.06 
   3  -3   1    5.02    0.17 
   3  -3   1    4.69    0.25 
   4  -3   1   16.55    0.47 
   4  -3   1   17.51    0.58 
   5  -3   1    0.02    0.07 
   5  -3   1    0.15    0.09 
   6  -3   1   22.10    0.70 
   6  -3   1   22.00    0.77 
   7  -3   1    0.06    0.11 
   8  -3   1   16.95    0.74 
  -8  -2   1   -0.10    0.18 
  -7  -2   1    4.89    0.49 
  -6  -2   1    2.51    0.34 
  -5  -2   1    5.25    0.38 
  -4  -2   1   10.62    0.48 
  -4  -2   1    9.59    0.48 
  -3  -2   1    4.28    0.27 
  -3  -2   1    4.11    0.26 
  -2  -2   1    4.78    0.25 
  -2  -2   1    4.35    0.24 
  -1  -2   1  137.40    2.76 
  -1  -2   1  130.65    2.94 
   0  -2   1   18.99    0.53 
   0  -2   1   19.96    0.46 
   1  -2   1   66.31    1.50 
  -2   2  -1    0.56    0.05 
   2  -2   1    0.03    0.05 
  -3   2  -1    3.51    0.17 
   3  -2   1    3.81    0.20 
   4  -2   1  116.48    2.65 
  -5   2  -1    3.11    0.25 
  -6   2  -1   85.03    2.08 
  -7   2  -1    1.17    0.25 
  -8   2  -1   13.98    0.73 
   8  -2   1   14.45    0.60 
  -8  -1   1    1.57    0.33 
  -7  -1   1    0.55    0.21 
  -6  -1   1    5.18    0.43 
   5   1  -1    2.64    0.15 
  -5  -1   1    2.21    0.27 
  -4  -1   1   15.11    0.59 
  -3  -1   1    1.94    0.18 
  -3  -1   1    1.86    0.19 
  -2  -1   1   20.81    0.61 
  -2  -1   1   21.15    0.60 
  -1  -1   1   26.13    0.63 
  -1  -1   1   25.57    0.66 
   0  -1   1  276.61    5.81 
  -1   1  -1   49.31    1.02 
   1  -1   1   50.20    1.10 
   2  -1   1  870.51   18.09 
  -3   1  -1    0.25    0.07 
  -4   1  -1  187.64    3.91 
  -5   1  -1    1.50    0.20 
  -6   1  -1    7.84    0.45 
   6  -1   1    7.69    0.36 
  -7   1  -1    0.52    0.19 
   7  -1   1    1.03    0.17 
  -8   1  -1    0.86    0.25 
  -9   1  -1    0.37    0.25 
   9   0  -1    0.16    0.21 
   8   0  -1    0.40    0.22 
  -8   0   1    0.20    0.17 
  -7   0   1    0.53    0.20 
  -6   0   1    0.09    0.11 
  -5   0   1    0.95    0.18 
  -4   0   1   25.80    0.80 
  -3   0   1    0.46    0.10 
  -2   0   1  299.59    5.96 
   1   0  -1   82.69    1.69 
   0   0  -1  122.39    2.43 
   0   0   1  121.81    2.21 
  -1   0  -1   92.38    1.89 
   1   0   1   92.51    1.71 
  -2   0  -1    1.76    0.13 
   2   0   1    1.87    0.10 
  -3   0  -1    0.01    0.05 
   3   0   1    0.10    0.05 
  -4   0  -1    6.18    0.33 
   4   0   1    6.22    0.25 
  -5   0  -1    2.37    0.25 
   5   0   1    2.73    0.17 
  -6   0  -1    8.29    0.49 
   6   0   1    8.53    0.34 
  -7   0  -1    1.59    0.27 
  -8   0  -1    0.97    0.27 
  -9   0  -1    0.77    0.30 
   9  -1  -1    0.02    0.20 
   8  -1  -1    1.67    0.30 
   7  -1  -1    0.79    0.20 
   6  -1  -1   22.10    0.78 
  -6   1   1   22.50    0.84 
  -5   1   1   18.45    0.69 
  -4   1   1   38.03    1.03 
   3  -1  -1   70.28    1.55 
   2  -1  -1   38.53    0.87 
   1  -1  -1    0.28    0.04 
   0  -1  -1   87.22    1.66 
   0  -1  -1   75.00    1.74 
  -1  -1  -1   98.57    2.13 
  -1  -1  -1  100.91    2.04 
   1   1   1   96.03    1.81 
  -2  -1  -1   39.41    0.98 
   2   1   1   41.05    0.81 
  -3  -1  -1   27.78    0.80 
   3   1   1   28.82    0.62 
  -4  -1  -1   19.12    0.67 
   4   1   1   18.67    0.47 
  -5  -1  -1    5.98    0.38 
   5   1   1    6.45    0.25 
  -6  -1  -1    1.04    0.21 
  -7  -1  -1    3.16    0.39 
  -8  -1  -1    0.32    0.20 
   9  -2  -1    0.47    0.24 
   8  -2  -1    1.91    0.30 
   7  -2  -1    5.16    0.37 
   6  -2  -1    8.66    0.44 
   5  -2  -1   13.20    0.49 
   4  -2  -1  120.15    2.55 
   3  -2  -1    9.43    0.31 
   2  -2  -1   20.95    0.59 
   2  -2  -1   20.66    0.50 
   1  -2  -1    1.13    0.10 
   1  -2  -1    1.06    0.07 
   0  -2  -1  157.04    3.15 
   0  -2  -1  156.58    3.36 
  -1  -2  -1   48.78    1.11 
  -1  -2  -1   48.11    1.13 
  -2  -2  -1   41.32    1.02 
  -2  -2  -1   40.68    1.03 
   2   2   1   39.88    0.81 
  -3  -2  -1   48.31    1.26 
  -3  -2  -1   49.89    1.28 
   3   2   1   50.93    1.00 
  -4  -2  -1    6.33    0.38 
  -4  -2  -1    5.96    0.33 
   4   2   1    6.25    0.22 
  -5  -2  -1   17.12    0.71 
  -6  -2  -1    1.58    0.27 
  -7  -2  -1    2.83    0.39 
  -8  -2  -1    0.11    0.18 
   9  -3  -1    2.45    0.37 
   8  -3  -1    5.37    0.45 
   7  -3  -1    2.40    0.31 
   7  -3  -1    2.09    0.25 
   6  -3  -1    7.96    0.38 
   6  -3  -1    8.24    0.46 
   5  -3  -1    0.42    0.13 
   5  -3  -1    0.44    0.11 
   4  -3  -1    0.01    0.05 
   4  -3  -1   -0.03    0.07 
   3  -3  -1   54.18    1.37 
   3  -3  -1   53.01    1.16 
   2  -3  -1    0.12    0.06 
   2  -3  -1    0.11    0.04 
   1  -3  -1  133.54    2.70 
   1  -3  -1  132.90    2.95 
   0  -3  -1    0.40    0.08 
   0  -3  -1    0.29    0.07 
  -1  -3  -1   54.79    1.33 
  -1  -3  -1   55.83    1.29 
  -2  -3  -1   31.31    0.88 
  -2  -3  -1   30.98    0.86 
  -3  -3  -1    6.78    0.34 
  -3  -3  -1    6.93    0.38 
  -4  -3  -1    8.17    0.41 
  -4  -3  -1    8.32    0.47 
  -5  -3  -1    1.37    0.23 
  -5  -3  -1    1.14    0.23 
  -6  -3  -1    0.13    0.14 
  -7  -3  -1    0.44    0.20 
   9  -4  -1    0.18    0.20 
   8  -4  -1    1.54    0.30 
   7  -4  -1   -0.01    0.12 
   6  -4  -1    0.84    0.20 
   5  -4  -1    2.17    0.25 
   5  -4  -1    2.08    0.17 
   4  -4  -1    0.90    0.17 
   4  -4  -1    1.15    0.11 
   3  -4  -1   14.32    0.54 
   3  -4  -1   14.78    0.41 
   2  -4  -1   46.16    1.01 
   2  -4  -1   42.97    1.18 
   1  -4  -1   24.15    0.72 
   1  -4  -1   24.17    0.62 
   0  -4  -1   54.52    1.36 
   0  -4  -1   53.07    1.25 
  -1  -4  -1   14.48    0.52 
  -1  -4  -1   14.83    0.52 
  -2  -4  -1    0.11    0.07 
  -2  -4  -1    0.10    0.08 
  -3  -4  -1    4.02    0.33 
  -3  -4  -1    3.67    0.27 
  -4  -4  -1    1.33    0.21 
  -4  -4  -1    1.08    0.22 
  -5  -4  -1    0.13    0.16 
  -5  -4  -1    0.20    0.14 
  -6  -4  -1    0.85    0.26 
  -7  -4  -1    1.67    0.36 
   9  -5  -1    0.52    0.24 
   8  -5  -1    0.28    0.19 
   7  -5  -1    1.23    0.25 
   6  -5  -1    1.24    0.23 
   5  -5  -1    1.12    0.21 
   4  -5  -1    1.62    0.23 
   3  -5  -1    0.38    0.13 
   3  -5  -1    0.67    0.09 
   2  -5  -1    0.20    0.09 
   2  -5  -1    0.32    0.08 
   1  -5  -1    0.72    0.11 
   1  -5  -1    0.47    0.11 
   0  -5  -1    0.41    0.11 
   0  -5  -1    0.39    0.11 
  -1  -5  -1    0.01    0.08 
  -1  -5  -1    0.00    0.06 
  -2  -5  -1    8.72    0.43 
  -2  -5  -1    8.95    0.44 
  -3  -5  -1    2.18    0.29 
  -3  -5  -1    2.36    0.26 
  -4  -5  -1    8.48    0.48 
  -4  -5  -1    7.71    0.50 
  -5  -5  -1    2.17    0.35 
  -6  -5  -1    0.32    0.21 
   8  -6  -1    0.87    0.29 
   7  -6  -1    0.88    0.25 
   6  -6  -1    0.11    0.15 
   5  -6  -1   -0.06    0.12 
   4  -6  -1    1.06    0.23 
   3  -6  -1    0.93    0.18 
   2  -6  -1    2.11    0.24 
   1  -6  -1    0.72    0.13 
   1  -6  -1    0.72    0.17 
   0  -6  -1   10.70    0.45 
   0  -6  -1   11.06    0.53 
  -1  -6  -1    4.60    0.33 
  -1  -6  -1    3.83    0.28 
  -2  -6  -1    0.33    0.13 
  -2  -6  -1    0.39    0.15 
  -3  -6  -1    3.23    0.36 
  -3  -6  -1    3.29    0.33 
  -4  -6  -1    1.16    0.27 
  -4  -6  -1    0.90    0.26 
  -5  -6  -1    0.27    0.20 
   8  -7  -1    0.51    0.26 
   7  -7  -1    0.11    0.22 
   6  -7  -1    0.39    0.23 
   5  -7  -1    0.72    0.23 
   4  -7  -1    8.51    0.50 
   3  -7  -1    1.27    0.23 
   2  -7  -1    3.57    0.34 
   1  -7  -1    0.11    0.11 
   0  -7  -1    3.36    0.33 
  -1  -7  -1   -0.01    0.10 
  -1  -7  -1    0.12    0.13 
  -2  -7  -1    2.95    0.34 
  -2  -7  -1    2.71    0.33 
  -3  -7  -1    0.35    0.20 
  -3  -7  -1    0.35    0.19 
  -4  -7  -1   -0.04    0.17 
   7  -8  -1    0.04    0.22 
   6  -8  -1    0.43    0.24 
   5  -8  -1    0.11    0.19 
   4  -8  -1    2.22    0.33 
   3  -8  -1    0.50    0.17 
   2  -8  -1    5.08    0.44 
   1  -8  -1    2.11    0.32 
   0  -8  -1    0.11    0.17 
  -1  -8  -1    1.24    0.28 
  -2  -8  -1    0.84    0.25 
  -3  -8  -1    0.14    0.20 
   5  -9  -1    0.32    0.19 
   4  -9  -1    0.66    0.23 
   3  -9  -1   -0.03    0.16 
   2  -9  -1    0.19    0.16 
   1  -9  -1    0.49    0.20 
   0  -9  -1    0.03    0.17 
  -1  -9  -1    1.35    0.33 
   1 -10   2    0.90    0.28 
   2 -10   2    0.07    0.19 
   3 -10   2    0.51    0.25 
  -2  -9   2    0.18    0.24 
  -1  -9   2    2.02    0.38 
   0  -9   2    0.45    0.24 
   1  -9   2    0.38    0.19 
   2  -9   2    0.03    0.14 
   3  -9   2    0.22    0.20 
   4  -9   2   -0.13    0.18 
   5  -9   2    0.05    0.20 
   6  -9   2    0.53    0.24 
  -3  -8   2   -0.04    0.20 
  -2  -8   2    0.14    0.18 
  -1  -8   2    0.96    0.26 
   0  -8   2    0.52    0.19 
   1  -8   2    0.03    0.12 
   2  -8   2    1.14    0.26 
   3  -8   2    0.43    0.20 
   4  -8   2    0.57    0.23 
   5  -8   2    0.15    0.18 
   6  -8   2    0.49    0.25 
   7  -8   2    0.05    0.20 
  -5  -7   2    0.36    0.25 
  -5  -7   2    0.37    0.25 
  -4  -7   2    0.12    0.18 
  -4  -7   2    0.36    0.21 
  -3  -7   2    0.30    0.17 
  -3  -7   2    0.38    0.21 
  -2  -7   2    0.24    0.17 
  -2  -7   2    0.13    0.12 
  -1  -7   2    2.78    0.35 
   0  -7   2   -0.03    0.11 
   1  -7   2    0.02    0.11 
   2  -7   2    2.70    0.31 
   3  -7   2    1.57    0.26 
   4  -7   2    4.64    0.39 
   5  -7   2    0.96    0.23 
   6  -7   2    0.13    0.17 
   7  -7   2    0.05    0.19 
   8  -7   2    0.14    0.24 
  -6  -6   2    0.10    0.21 
  -6  -6   2    0.00    0.25 
  -5  -6   2    0.60    0.25 
  -5  -6   2   -0.02    0.17 
  -4  -6   2    0.16    0.14 
  -4  -6   2    0.12    0.16 
  -3  -6   2    0.90    0.21 
  -3  -6   2    1.31    0.26 
  -2  -6   2    1.30    0.24 
  -2  -6   2    1.41    0.23 
  -1  -6   2   -0.12    0.09 
  -1  -6   2   -0.02    0.09 
   0  -6   2    9.48    0.38 
   0  -6   2    9.22    0.48 
   1  -6   2    0.28    0.13 
   2  -6   2    1.09    0.19 
   3  -6   2    0.68    0.17 
   4  -6   2    0.18    0.13 
   5  -6   2    0.93    0.21 
   6  -6   2    0.19    0.17 
   7  -6   2    0.63    0.23 
   8  -6   2    0.19    0.22 
  -6  -5   2    1.49    0.33 
  -6  -5   2    1.18    0.31 
  -5  -5   2    0.37    0.20 
  -5  -5   2    0.27    0.17 
  -4  -5   2    7.72    0.49 
  -4  -5   2    8.00    0.51 
  -3  -5   2    0.71    0.18 
  -3  -5   2    0.89    0.21 
  -2  -5   2    2.04    0.24 
  -2  -5   2    1.98    0.26 
  -1  -5   2    3.82    0.25 
  -1  -5   2    3.45    0.28 
   0  -5   2   10.15    0.46 
   0  -5   2   10.33    0.37 
   1  -5   2    6.26    0.23 
   1  -5   2    6.26    0.34 
   2  -5   2    5.13    0.31 
   3  -5   2    1.36    0.19 
   4  -5   2    0.06    0.10 
   5  -5   2    0.02    0.10 
   6  -5   2    0.11    0.13 
   7  -5   2    0.14    0.16 
   8  -5   2    0.14    0.19 
   9  -5   2    0.16    0.18 
  -7  -4   2   -0.02    0.20 
  -6  -4   2    0.06    0.16 
  -5  -4   2    0.04    0.12 
  -5  -4   2   -0.02    0.14 
  -4  -4   2    2.37    0.29 
  -4  -4   2    2.05    0.29 
  -3  -4   2    0.12    0.10 
  -3  -4   2    0.11    0.10 
  -2  -4   2    0.48    0.13 
  -2  -4   2    0.54    0.13 
  -1  -4   2    5.01    0.30 
  -1  -4   2    4.41    0.25 
   0  -4   2   10.10    0.42 
   0  -4   2   10.37    0.34 
  -1   4  -2    7.48    0.21 
   1  -4   2    7.49    0.34 
   2  -4   2    3.09    0.21 
   3  -4   2    2.10    0.19 
   4  -4   2    1.04    0.16 
   5  -4   2    0.75    0.16 
   6  -4   2    0.05    0.11 
   7  -4   2    0.10    0.15 
   9  -4   2   -0.21    0.16 
  -8  -3   2    0.75    0.25 
  -7  -3   2    0.75    0.25 
  -6  -3   2    0.32    0.17 
  -5  -3   2    2.52    0.33 
  -5  -3   2    2.87    0.33 
  -4  -3   2    0.77    0.17 
  -4  -3   2    1.06    0.21 
  -3  -3   2    0.53    0.13 
  -3  -3   2    0.58    0.14 
  -2  -3   2    1.18    0.16 
  -2  -3   2    1.30    0.17 
  -1  -3   2    1.88    0.18 
  -1  -3   2    2.22    0.16 
   0  -3   2   59.09    1.43 
   0  -3   2   57.97    1.27 
  -1   3  -2    4.63    0.13 
   1  -3   2    4.52    0.23 
   2  -3   2    0.01    0.06 
  -3   3  -2    0.65    0.07 
   3  -3   2    1.12    0.13 
   4  -3   2   21.04    0.66 
  -5   3  -2    1.05    0.14 
   5  -3   2    0.92    0.15 
  -6   3  -2    0.19    0.11 
   6  -3   2    0.08    0.11 
   7  -3   2    0.12    0.12 
   8  -3   2    2.67    0.31 
   8   2  -2    0.03    0.18 
  -8  -2   2    0.30    0.20 
  -7  -2   2    0.01    0.13 
  -6  -2   2    2.93    0.38 
  -5  -2   2    3.59    0.36 
  -4  -2   2    0.13    0.10 
  -4  -2   2    0.21    0.09 
  -3  -2   2    0.05    0.07 
  -3  -2   2    0.01    0.07 
  -2  -2   2    8.12    0.34 
  -2  -2   2    7.66    0.35 
  -1  -2   2   68.04    1.22 
  -1  -2   2   65.13    1.45 
  -1  -2   2   63.84    1.56 
   0   2  -2    7.10    0.22 
   0  -2   2    9.09    0.30 
  -1   2  -2   92.60    1.84 
   1  -2   2   91.33    2.03 
  -2   2  -2    2.02    0.10 
   2  -2   2    2.09    0.14 
  -3   2  -2    0.48    0.08 
   3  -2   2    0.41    0.08 
  -5   2  -2    2.74    0.23 
   5  -2   2    3.46    0.23 
  -6   2  -2    2.00    0.24 
   6  -2   2    2.47    0.24 
   6  -2   2    2.87    0.24 
  -7   2  -2    1.60    0.27 
   7  -2   2    1.72    0.22 
   7  -2   2    1.65    0.22 
  -8   2  -2    0.10    0.19 
   8  -2   2   -0.04    0.13 
   8   1  -2    0.04    0.17 
  -7  -1   2    1.15    0.26 
  -6  -1   2    1.50    0.26 
  -5  -1   2    0.26    0.12 
  -4  -1   2    0.64    0.15 
  -3  -1   2    5.10    0.29 
  -3  -1   2    4.57    0.28 
  -2  -1   2    0.03    0.05 
  -2  -1   2    0.08    0.06 
   1   1  -2    0.92    0.08 
  -1  -1   2    0.91    0.06 
  -1  -1   2    0.91    0.10 
   0   1  -2   13.34    0.33 
   0  -1   2   13.55    0.32 
   0  -1   2   13.66    0.37 
   1  -1   2    5.60    0.18 
   1  -1   2    4.73    0.17 
  -2   1  -2    0.51    0.07 
   2  -1   2    0.46    0.06 
   2  -1   2    0.50    0.08 
  -3   1  -2    1.48    0.13 
   3  -1   2    1.25    0.11 
   3  -1   2    1.49    0.13 
  -4   1  -2   20.30    0.64 
   4  -1   2   20.04    0.57 
  -5   1  -2    0.25    0.10 
   5  -1   2    0.21    0.08 
  -6   1  -2    4.76    0.34 
   6  -1   2    4.16    0.27 
  -7   1  -2    0.11    0.12 
   7  -1   2    0.40    0.14 
  -8   1  -2    0.05    0.17 
  -9   1  -2    0.06    0.23 
   9   0  -2    0.46    0.26 
   8   0  -2   -0.05    0.15 
   7   0  -2    0.19    0.14 
   6   0  -2    0.84    0.18 
   5   0  -2    5.51    0.34 
   4   0  -2   25.90    0.77 
   3   0  -2   14.93    0.49 
   2   0  -2   62.42    1.37 
   1   0  -2   10.85    0.31 
   0   0  -2  138.31    2.77 
   0   0   2  139.54    2.53 
  -1   0  -2   54.88    1.18 
   1   0   2   54.85    1.08 
  -2   0  -2  285.31    5.64 
   2   0   2  281.13    5.10 
  -3   0  -2    0.37    0.09 
   3   0   2    0.23    0.06 
  -4   0  -2   24.95    0.77 
   4   0   2   25.04    0.64 
  -5   0  -2    0.39    0.13 
   5   0   2    0.40    0.09 
  -6   0  -2    0.12    0.12 
   6   0   2    0.17    0.08 
  -7   0  -2    0.47    0.19 
  -8   0  -2    0.13    0.18 
   9  -1  -2   -0.05    0.20 
   8  -1  -2    3.15    0.38 
   7  -1  -2   -0.05    0.12 
   6  -1  -2    1.51    0.22 
   5  -1  -2    0.17    0.09 
   4  -1  -2   41.55    1.07 
   3  -1  -2    0.71    0.11 
   2  -1  -2  378.37    7.44 
   1  -1  -2   38.03    0.84 
   0  -1  -2   81.61    1.69 
  -1  -1  -2   64.11    1.39 
  -1  -1  -2   63.43    1.39 
   1   1   2   64.00    1.25 
  -2  -1  -2    0.95    0.12 
  -2  -1  -2    1.01    0.08 
   2   1   2    1.10    0.09 
  -3  -1  -2    0.56    0.12 
   3   1   2    0.68    0.08 
  -4  -1  -2    1.20    0.18 
   4   1   2    1.45    0.13 
  -5  -1  -2    6.20    0.40 
   5   1   2    5.88    0.26 
  -6  -1  -2    0.25    0.13 
  -7  -1  -2    2.80    0.37 
  -8  -1  -2    0.22    0.19 
   9  -2  -2    0.58    0.25 
   8  -2  -2    1.04    0.25 
   7  -2  -2    0.51    0.17 
   6  -2  -2    9.90    0.47 
   5  -2  -2    0.76    0.14 
   4  -2  -2    3.48    0.21 
   3  -2  -2    0.45    0.08 
   2  -2  -2    0.93    0.09 
   2  -2  -2    1.49    0.15 
   1  -2  -2    3.14    0.17 
   1  -2  -2    3.23    0.15 
   0  -2  -2  165.85    3.40 
   0  -2  -2  169.75    3.59 
  -1  -2  -2    4.30    0.23 
  -1  -2  -2    4.15    0.18 
  -2  -2  -2   93.69    2.08 
  -2  -2  -2   94.03    2.10 
   2   2   2   92.88    1.79 
  -3  -2  -2    3.20    0.20 
  -3  -2  -2    3.00    0.25 
   3   2   2    3.29    0.16 
  -4  -2  -2    0.72    0.13 
  -4  -2  -2    0.58    0.15 
   4   2   2    0.63    0.09 
  -5  -2  -2    0.43    0.15 
  -6  -2  -2    1.35    0.26 
  -7  -2  -2    0.17    0.15 
  -8  -2  -2   -0.04    0.17 
   9  -3  -2   -0.22    0.20 
   7  -3  -2   -0.09    0.10 
   6  -3  -2    0.08    0.09 
   5  -3  -2    3.19    0.22 
   4  -3  -2    0.33    0.12 
   4  -3  -2    0.20    0.08 
   3  -3  -2   18.31    0.50 
   3  -3  -2   17.84    0.61 
   2  -3  -2   40.31    1.07 
   2  -3  -2   40.39    0.93 
   1  -3  -2   -0.14    0.04 
   1  -3  -2   -0.02    0.04 
   0  -3  -2    6.73    0.28 
   0  -3  -2    7.23    0.28 
  -1  -3  -2    1.73    0.14 
  -1  -3  -2    1.60    0.16 
  -2  -3  -2    0.59    0.13 
  -3  -3  -2    0.06    0.09 
  -3  -3  -2    0.21    0.08 
  -4  -3  -2    1.21    0.22 
  -4  -3  -2    1.47    0.19 
  -5  -3  -2    0.36    0.16 
  -6  -3  -2    3.49    0.42 
  -7  -3  -2    0.24    0.18 
   9  -4  -2    0.38    0.21 
   8  -4  -2    0.43    0.21 
   7  -4  -2    0.13    0.15 
   6  -4  -2    0.21    0.10 
   6  -4  -2    0.40    0.16 
   5  -4  -2    0.43    0.14 
   5  -4  -2    0.24    0.09 
   4  -4  -2    5.88    0.35 
   4  -4  -2    5.81    0.26 
   3  -4  -2    2.02    0.15 
   3  -4  -2    2.33    0.22 
   2  -4  -2    2.73    0.17 
   2  -4  -2    2.68    0.21 
   1  -4  -2   15.46    0.47 
   1  -4  -2   14.35    0.51 
   0  -4  -2   14.26    0.49 
   0  -4  -2   14.94    0.51 
  -1  -4  -2    7.66    0.36 
  -1  -4  -2    8.60    0.36 
  -2  -4  -2   10.31    0.47 
  -2  -4  -2    9.97    0.42 
  -3  -4  -2    1.93    0.21 
  -3  -4  -2    2.16    0.26 
  -4  -4  -2   -0.07    0.09 
  -4  -4  -2    0.00    0.08 
  -5  -4  -2    0.00    0.14 
  -6  -4  -2    0.74    0.25 
  -7  -4  -2    0.25    0.20 
   8  -5  -2    0.22    0.20 
   7  -5  -2    0.53    0.21 
   6  -5  -2    0.50    0.18 
   5  -5  -2    3.24    0.34 
   4  -5  -2    0.72    0.17 
   4  -5  -2    0.58    0.11 
   3  -5  -2    3.19    0.20 
   3  -5  -2    3.48    0.27 
   2  -5  -2   14.91    0.59 
   2  -5  -2   17.25    0.51 
   1  -5  -2    1.59    0.19 
   1  -5  -2    1.66    0.17 
   0  -5  -2    3.34    0.24 
   0  -5  -2    3.74    0.25 
  -1  -5  -2    1.96    0.21 
  -1  -5  -2    1.61    0.21 
  -2  -5  -2    1.66    0.24 
  -2  -5  -2    1.54    0.20 
  -3  -5  -2    0.11    0.11 
  -3  -5  -2    0.06    0.11 
  -4  -5  -2    0.14    0.14 
  -5  -5  -2    0.44    0.20 
  -6  -5  -2    0.34    0.21 
   8  -6  -2    0.13    0.21 
   7  -6  -2    0.86    0.29 
   6  -6  -2    2.15    0.33 
   5  -6  -2    3.01    0.35 
   4  -6  -2    0.27    0.14 
   3  -6  -2    4.14    0.35 
   2  -6  -2    7.30    0.33 
   2  -6  -2    6.88    0.40 
   1  -6  -2    0.64    0.16 
   1  -6  -2    0.70    0.13 
   0  -6  -2    3.34    0.27 
   0  -6  -2    2.94    0.29 
  -1  -6  -2    2.86    0.28 
  -1  -6  -2    2.95    0.28 
  -2  -6  -2    1.11    0.21 
  -2  -6  -2    1.56    0.24 
  -3  -6  -2    3.20    0.33 
  -3  -6  -2    3.35    0.37 
  -4  -6  -2    0.36    0.21 
  -5  -6  -2   -0.08    0.19 
   7  -7  -2    0.13    0.22 
   6  -7  -2    2.31    0.37 
   5  -7  -2   -0.16    0.12 
   4  -7  -2    0.58    0.19 
   3  -7  -2    0.23    0.15 
   2  -7  -2    3.30    0.32 
   1  -7  -2    1.76    0.26 
   0  -7  -2    2.84    0.28 
   0  -7  -2    2.74    0.31 
  -1  -7  -2   -0.01    0.09 
  -1  -7  -2   -0.02    0.12 
  -2  -7  -2    0.59    0.19 
  -2  -7  -2    0.41    0.17 
  -3  -7  -2    0.99    0.26 
  -4  -7  -2    0.19    0.20 
   7  -8  -2   -0.22    0.19 
   6  -8  -2    0.15    0.23 
   5  -8  -2    0.09    0.16 
   4  -8  -2    0.95    0.24 
   3  -8  -2    0.96    0.24 
   2  -8  -2    0.06    0.14 
   1  -8  -2    0.03    0.14 
   0  -8  -2    0.07    0.15 
  -1  -8  -2    0.10    0.17 
  -3  -8  -2   -0.02    0.21 
   5  -9  -2    0.25    0.19 
   4  -9  -2    0.46    0.21 
   3  -9  -2    0.21    0.19 
   2  -9  -2    0.00    0.16 
   1  -9  -2    0.52    0.21 
   0  -9  -2    0.10    0.21 
  -1  -9  -2    0.61    0.30 
   1 -10   3    0.44    0.26 
   2 -10   3    0.96    0.28 
   3 -10   3   -0.09    0.20 
  -2  -9   3    0.75    0.30 
  -1  -9   3    1.17    0.30 
   0  -9   3    0.32    0.21 
   1  -9   3    1.58    0.31 
   2  -9   3   -0.01    0.19 
   3  -9   3   -0.12    0.19 
   4  -9   3    0.13    0.19 
   5  -9   3    0.11    0.21 
   6  -9   3    0.08    0.21 
  -3  -8   3    1.84    0.36 
  -2  -8   3    0.13    0.18 
  -1  -8   3    0.74    0.23 
   0  -8   3   -0.02    0.14 
   1  -8   3    0.42    0.18 
   2  -8   3    0.02    0.14 
   3  -8   3    1.17    0.27 
   4  -8   3    3.43    0.39 
   5  -8   3    1.31    0.28 
   6  -8   3    2.57    0.37 
   7  -8   3    0.96    0.29 
  -5  -7   3    2.21    0.43 
  -5  -7   3    1.45    0.35 
  -4  -7   3    0.12    0.20 
  -4  -7   3    0.09    0.19 
  -3  -7   3    0.27    0.19 
  -3  -7   3    0.49    0.19 
  -2  -7   3    2.15    0.29 
  -2  -7   3    2.47    0.37 
  -1  -7   3    1.01    0.23 
   0  -7   3    0.42    0.17 
   1  -7   3    3.73    0.36 
   2  -7   3    9.97    0.54 
   3  -7   3    6.93    0.44 
   4  -7   3    1.45    0.26 
   5  -7   3    3.20    0.34 
   6  -7   3    1.24    0.26 
   7  -7   3    0.27    0.22 
   8  -7   3    1.61    0.34 
  -6  -6   3    0.58    0.30 
  -6  -6   3    0.40    0.24 
  -5  -6   3    0.32    0.21 
  -5  -6   3    0.20    0.22 
  -4  -6   3    0.05    0.15 
  -4  -6   3    0.02    0.15 
  -3  -6   3    0.10    0.14 
  -3  -6   3   -0.08    0.13 
  -2  -6   3    6.53    0.40 
  -2  -6   3    5.57    0.42 
  -1  -6   3    1.62    0.21 
  -1  -6   3    1.40    0.24 
   0  -6   3    1.16    0.21 
   1  -6   3    6.83    0.40 
   2  -6   3   12.76    0.57 
   3  -6   3    4.38    0.33 
   4  -6   3   11.83    0.54 
   5  -6   3    0.00    0.12 
   6  -6   3    1.60    0.26 
   7  -6   3    0.47    0.21 
  -6  -5   3    0.13    0.23 
  -6  -5   3    0.19    0.20 
  -5  -5   3    0.07    0.17 
  -5  -5   3    0.17    0.18 
  -4  -5   3    1.46    0.27 
  -4  -5   3    0.99    0.23 
  -3  -5   3    6.36    0.43 
  -3  -5   3    5.64    0.39 
  -2  -5   3   13.06    0.56 
  -2  -5   3   14.35    0.64 
  -1  -5   3   20.27    0.75 
  -1  -5   3   20.45    0.66 
   0   5  -3   20.15    0.56 
   0  -5   3   20.10    0.72 
  -1   5  -3    4.11    0.16 
   1  -5   3    3.87    0.27 
   2  -5   3    0.73    0.14 
   3  -5   3    1.50    0.19 
   4  -5   3   -0.12    0.08 
   5  -5   3    3.69    0.29 
   6  -5   3    0.24    0.14 
   7  -5   3    0.70    0.20 
   8  -5   3    0.65    0.22 
  -7  -4   3    0.13    0.20 
  -6  -4   3    6.06    0.56 
  -5  -4   3    0.12    0.16 
  -5  -4   3    0.28    0.16 
  -4  -4   3   19.94    0.83 
  -4  -4   3   19.82    0.81 
  -3  -4   3    0.28    0.12 
  -3  -4   3    0.25    0.12 
  -2  -4   3    9.93    0.45 
  -2  -4   3   10.02    0.48 
  -1  -4   3   -0.06    0.03 
  -1  -4   3    0.03    0.06 
  -1  -4   3   -0.05    0.05 
   0   4  -3    0.29    0.07 
   0  -4   3    0.49    0.11 
   0  -4   3    0.33    0.07 
  -1   4  -3    0.31    0.05 
   1  -4   3    0.59    0.12 
   2  -4   3    2.42    0.19 
   3  -4   3    0.01    0.07 
   4  -4   3    4.17    0.26 
   5  -4   3    0.10    0.10 
   6  -4   3    6.38    0.37 
   7  -4   3    0.22    0.13 
   7  -4   3    0.15    0.14 
   8  -4   3    0.08    0.13 
   9  -4   3    0.54    0.21 
   8   3  -3    5.16    0.53 
   7   3  -3    0.05    0.17 
  -6  -3   3    5.87    0.53 
  -5  -3   3    0.41    0.18 
  -5  -3   3    0.53    0.20 
  -4  -3   3    0.17    0.13 
  -4  -3   3    0.17    0.11 
  -3  -3   3    0.21    0.09 
  -3  -3   3    0.23    0.11 
  -2  -3   3    0.81    0.15 
  -2  -3   3    0.80    0.15 
   1   3  -3    0.09    0.05 
  -1  -3   3    0.07    0.03 
  -1  -3   3    0.04    0.06 
   0   3  -3    4.59    0.18 
   0  -3   3    5.18    0.26 
  -1   3  -3   11.09    0.28 
   1  -3   3   11.09    0.35 
   1  -3   3   11.01    0.40 
  -2   3  -3   26.15    0.56 
   2  -3   3   24.64    0.70 
  -3   3  -3    0.38    0.06 
   3  -3   3    0.35    0.09 
  -4   3  -3    0.18    0.07 
   4  -3   3    0.27    0.09 
  -5   3  -3    2.03    0.19 
   5  -3   3    2.25    0.20 
   5  -3   3    2.44    0.24 
   6  -3   3    3.97    0.28 
   6  -3   3    3.13    0.29 
   7  -3   3    1.98    0.25 
   8  -3   3    0.20    0.15 
   9  -3   3    0.40    0.21 
   8   2  -3    1.02    0.29 
   7   2  -3   -0.06    0.15 
   6   2  -3    2.41    0.32 
  -5  -2   3    0.40    0.16 
  -4  -2   3    0.33    0.13 
  -4  -2   3    0.49    0.15 
   3   2  -3    5.80    0.31 
  -3  -2   3    6.36    0.36 
  -3  -2   3    6.14    0.34 
   2   2  -3   31.98    0.83 
  -2  -2   3   31.24    0.92 
   1   2  -3   14.94    0.44 
  -1  -2   3   14.87    0.51 
  -1  -2   3   15.10    0.35 
   0  -2   3   75.87    1.75 
   0  -2   3   76.50    1.47 
  -1   2  -3   29.51    0.65 
   1  -2   3   28.48    0.66 
   1  -2   3   30.08    0.75 
  -2   2  -3   26.24    0.61 
   2  -2   3   25.94    0.65 
   2  -2   3   25.86    0.66 
  -3   2  -3    6.41    0.26 
   3  -2   3    6.93    0.27 
   3  -2   3    6.78    0.29 
   4  -2   3   16.95    0.54 
   4  -2   3   16.40    0.51 
  -5   2  -3    0.50    0.12 
   5  -2   3    0.65    0.12 
   5  -2   3    0.65    0.14 
  -6   2  -3    0.38    0.14 
   6  -2   3    0.34    0.13 
   6  -2   3    0.51    0.13 
  -7   2  -3   -0.03    0.13 
   7  -2   3    0.15    0.11 
   8  -2   3    1.77    0.26 
   8   1  -3    0.44    0.24 
   7   1  -3   -0.02    0.13 
   6   1  -3    1.69    0.26 
   5   1  -3    0.52    0.15 
   4   1  -3    8.42    0.41 
   3   1  -3    7.97    0.35 
   2   1  -3   28.58    0.75 
  -2  -1   3   28.43    0.83 
   1   1  -3   57.25    1.25 
  -1  -1   3   56.80    1.37 
   0   1  -3  336.89    6.57 
   0  -1   3  337.86    6.00 
   0  -1   3  330.46    7.05 
  -1   1  -3   33.21    0.75 
   1  -1   3   33.83    0.77 
   1  -1   3   32.27    0.73 
  -2   1  -3   13.38    0.40 
   2  -1   3   13.61    0.35 
   2  -1   3   13.48    0.40 
  -3   1  -3    0.97    0.12 
   3  -1   3    1.07    0.09 
   3  -1   3    1.16    0.13 
  -4   1  -3   20.42    0.64 
   4  -1   3   19.54    0.56 
   4  -1   3   21.65    0.60 
  -5   1  -3    0.05    0.08 
   5  -1   3    0.09    0.08 
   5  -1   3    0.02    0.06 
  -6   1  -3    4.38    0.35 
   6  -1   3    3.51    0.27 
  -7   1  -3   -0.02    0.13 
   7  -1   3   -0.07    0.10 
  -8   1  -3    0.01    0.15 
  -9   1  -3   -0.32    0.24 
   9   0  -3    0.22    0.23 
   8   0  -3    0.15    0.19 
   7   0  -3    4.57    0.41 
   6   0  -3    1.10    0.21 
   5   0  -3   31.49    0.97 
   4   0  -3    9.46    0.41 
   3   0  -3   70.30    1.61 
   2   0  -3    0.02    0.04 
   1   0  -3    5.53    0.21 
   0   0  -3   30.90    0.71 
   0   0   3   30.30    0.67 
  -1   0  -3  101.59    2.10 
   1   0   3  100.65    1.93 
  -2   0  -3    3.47    0.19 
   2   0   3    3.57    0.18 
  -3   0  -3   10.70    0.41 
   3   0   3   11.16    0.36 
  -4   0  -3   11.79    0.49 
   4   0   3   12.31    0.41 
  -5   0  -3    0.18    0.10 
   5   0   3    0.14    0.07 
  -6   0  -3    1.20    0.23 
   6   0   3    1.02    0.16 
  -7   0  -3    0.05    0.13 
  -8   0  -3    0.17    0.18 
   9  -1  -3    1.36    0.34 
   8  -1  -3    0.51    0.21 
   7  -1  -3    2.09    0.29 
   6  -1  -3    0.52    0.16 
   5  -1  -3    0.70    0.15 
   4  -1  -3   -0.04    0.05 
   3  -1  -3    2.93    0.19 
   2  -1  -3   51.90    1.17 
   1  -1  -3   12.37    0.37 
   0  -1  -3  166.99    3.46 
   0  -1  -3  158.51    3.29 
  -1  -1  -3    4.63    0.22 
  -1  -1  -3    4.49    0.14 
   1   1   3    4.54    0.20 
  -2  -1  -3   23.32    0.68 
  -2  -1  -3   23.78    0.57 
   2   1   3   24.17    0.59 
  -3  -1  -3    2.17    0.20 
   3   1   3    2.38    0.15 
  -4  -1  -3    0.37    0.12 
   4   1   3    0.65    0.11 
  -5  -1  -3    2.33    0.28 
   5   1   3    2.11    0.19 
  -6  -1  -3    0.28    0.13 
  -7  -1  -3    1.21    0.27 
  -8  -1  -3    0.53    0.23 
   9  -2  -3    0.36    0.23 
   8  -2  -3    0.39    0.19 
   7  -2  -3   -0.13    0.10 
   6  -2  -3   -0.04    0.09 
   5  -2  -3    2.61    0.23 
   4  -2  -3   34.02    0.90 
   3  -2  -3   23.62    0.64 
   2  -2  -3  114.40    2.39 
   1  -2  -3   13.17    0.42 
   1  -2  -3   13.45    0.41 
   0  -2  -3   45.89    1.08 
  -1  -2  -3    1.85    0.11 
  -1  -2  -3    1.35    0.14 
  -2  -2  -3    6.60    0.25 
  -2  -2  -3    6.34    0.33 
   2   2   3    6.64    0.26 
  -3  -2  -3    4.47    0.22 
  -3  -2  -3    4.37    0.29 
   3   2   3    3.79    0.20 
  -4  -2  -3    0.41    0.14 
   4   2   3    0.31    0.08 
  -5  -2  -3    2.26    0.30 
  -6  -2  -3    9.12    0.57 
  -7  -2  -3    0.32    0.20 
   9  -3  -3    0.02    0.22 
   8  -3  -3    2.38    0.31 
   7  -3  -3    0.65    0.17 
   6  -3  -3   13.00    0.53 
   4  -3  -3    9.58    0.37 
   4  -3  -3    8.70    0.45 
   3  -3  -3    0.14    0.08 
   3  -3  -3    0.14    0.07 
   2  -3  -3    6.18    0.31 
   2  -3  -3    6.77    0.27 
   1  -3  -3   11.89    0.40 
   1  -3  -3   11.78    0.41 
   0  -3  -3   21.03    0.62 
   0  -3  -3   21.14    0.60 
  -1  -3  -3   37.16    0.95 
  -1  -3  -3   38.25    1.00 
  -2  -3  -3    3.03    0.19 
  -2  -3  -3    2.59    0.24 
  -3  -3  -3    6.94    0.32 
  -3  -3  -3    7.69    0.42 
  -4  -3  -3   16.33    0.69 
  -5  -3  -3    0.34    0.16 
  -6  -3  -3    2.29    0.37 
  -7  -3  -3    2.46    0.39 
   9  -4  -3    0.62    0.25 
   8  -4  -3    1.38    0.29 
   7  -4  -3    1.25    0.26 
   6  -4  -3    4.99    0.30 
   6  -4  -3    4.86    0.38 
   5  -4  -3    0.71    0.13 
   5  -4  -3    0.72    0.18 
   4  -4  -3   27.30    0.75 
   4  -4  -3   27.03    0.90 
   3  -4  -3    1.28    0.18 
   3  -4  -3    1.41    0.15 
   2  -4  -3   12.73    0.49 
   2  -4  -3   13.17    0.44 
   1  -4  -3    1.27    0.16 
   1  -4  -3    1.51    0.16 
   0  -4  -3   19.35    0.60 
   0  -4  -3   17.97    0.60 
  -1  -4  -3    1.45    0.19 
  -1  -4  -3    1.57    0.16 
  -2  -4  -3    9.56    0.40 
  -3  -4  -3    4.52    0.29 
  -3  -4  -3    4.75    0.39 
  -4  -4  -3    0.37    0.15 
  -5  -4  -3    3.30    0.42 
  -6  -4  -3    2.62    0.42 
   8  -5  -3    1.67    0.34 
   7  -5  -3    0.11    0.16 
   6  -5  -3    2.54    0.33 
   5  -5  -3    0.30    0.15 
   4  -5  -3    0.08    0.11 
   4  -5  -3    0.12    0.08 
   3  -5  -3    0.13    0.11 
   3  -5  -3    0.31    0.09 
   2  -5  -3    0.07    0.09 
   2  -5  -3    0.07    0.07 
   1  -5  -3    2.26    0.22 
   1  -5  -3    2.94    0.22 
   0  -5  -3   14.86    0.56 
   0  -5  -3   14.71    0.55 
  -1  -5  -3    9.62    0.46 
  -1  -5  -3    9.63    0.43 
  -2  -5  -3   12.09    0.51 
  -2  -5  -3   12.23    0.57 
  -3  -5  -3    8.50    0.50 
  -4  -5  -3    1.14    0.25 
  -5  -5  -3    0.76    0.27 
  -6  -5  -3    0.02    0.19 
   8  -6  -3    0.95    0.31 
   7  -6  -3    0.47    0.23 
   6  -6  -3    2.41    0.36 
   5  -6  -3    5.68    0.42 
   4  -6  -3   13.44    0.64 
   3  -6  -3   14.29    0.64 
   2  -6  -3   15.47    0.55 
   2  -6  -3   14.83    0.63 
   1  -6  -3    8.88    0.43 
   1  -6  -3   10.31    0.48 
   0  -6  -3    0.22    0.12 
   0  -6  -3    0.27    0.12 
  -1  -6  -3    1.41    0.21 
  -1  -6  -3    1.14    0.20 
  -2  -6  -3    0.24    0.14 
  -2  -6  -3    0.29    0.16 
  -3  -6  -3    1.42    0.27 
  -4  -6  -3    0.09    0.16 
  -5  -6  -3    1.87    0.36 
   7  -7  -3    2.65    0.43 
   6  -7  -3   10.85    0.66 
   5  -7  -3    5.46    0.49 
   4  -7  -3    5.63    0.44 
   3  -7  -3    4.60    0.40 
   2  -7  -3   -0.02    0.12 
   1  -7  -3    0.50    0.17 
   0  -7  -3    0.03    0.10 
   0  -7  -3    0.14    0.14 
  -1  -7  -3    1.62    0.26 
  -1  -7  -3    1.77    0.27 
  -2  -7  -3    0.19    0.15 
  -3  -7  -3    0.51    0.23 
  -4  -7  -3    2.19    0.40 
   6  -8  -3    0.03    0.19 
   5  -8  -3    0.59    0.23 
   4  -8  -3    0.08    0.16 
   3  -8  -3    0.63    0.22 
   2  -8  -3    0.29    0.18 
   1  -8  -3    1.64    0.29 
   0  -8  -3    1.19    0.27 
  -2  -8  -3    1.87    0.35 
   5  -9  -3    0.19    0.22 
   4  -9  -3    0.88    0.26 
   3  -9  -3    1.39    0.31 
   2  -9  -3    3.53    0.43 
   1  -9  -3    3.00    0.41 
   0  -9  -3    0.84    0.28 
   1 -10   4    3.08    0.45 
   2 -10   4    0.80    0.29 
   3 -10   4    5.78    0.57 
  -2  -9   4    0.35    0.23 
  -1  -9   4    6.25    0.59 
   0  -9   4    0.15    0.19 
   1  -9   4    7.90    0.60 
   2  -9   4    0.05    0.20 
   3  -9   4    1.71    0.34 
   4  -9   4    0.26    0.22 
   5  -9   4    0.24    0.23 
  -3  -8   4    7.47    0.65 
  -2  -8   4    0.31    0.20 
  -1  -8   4    5.45    0.50 
   0  -8   4    0.45    0.20 
   1  -8   4    0.61    0.22 
   2  -8   4    0.85    0.23 
   3  -8   4    0.71    0.24 
   4  -8   4    0.75    0.24 
   5  -8   4    2.69    0.37 
   6  -8   4    3.17    0.40 
   7  -8   4    1.93    0.34 
   5   7  -4    0.63    0.23 
  -5  -7   4    0.90    0.34 
   4   7  -4   -0.04    0.16 
  -4  -7   4   -0.01    0.19 
   3   7  -4    1.33    0.25 
  -3  -7   4    1.38    0.31 
  -2  -7   4    0.21    0.16 
  -1  -7   4    1.39    0.27 
   0  -7   4    0.70    0.21 
   1  -7   4    0.12    0.14 
   1  -7   4    0.14    0.09 
   2  -7   4   14.38    0.67 
   3  -7   4    1.13    0.22 
   4  -7   4   37.33    1.21 
   5  -7   4    0.60    0.20 
   6  -7   4   15.47    0.72 
   7  -7   4    0.02    0.14 
   7  -7   4    0.06    0.19 
   6   6  -4   -0.14    0.18 
   5   6  -4    0.89    0.24 
  -5  -6   4    1.47    0.35 
   4   6  -4    1.04    0.24 
  -4  -6   4    0.85    0.25 
   3   6  -4    0.68    0.19 
  -3  -6   4    0.31    0.17 
   2   6  -4   18.06    0.66 
  -2  -6   4   17.79    0.79 
   1   6  -4   -0.02    0.06 
  -1  -6   4    0.19    0.14 
   0  -6   4   95.80    2.46 
   0  -6   4   96.15    1.93 
   1  -6   4    0.30    0.09 
   1  -6   4    0.41    0.15 
   2  -6   4   90.20    2.30 
   3  -6   4    0.69    0.18 
   4  -6   4   10.33    0.51 
   5  -6   4    0.88    0.20 
   6  -6   4   -0.04    0.13 
   7  -6   4   -0.02    0.15 
   7  -6   4    0.06    0.16 
   8  -6   4    0.28    0.18 
   6   5  -4    2.04    0.34 
  -6  -5   4    2.71    0.45 
   5   5  -4    0.45    0.20 
  -5  -5   4    0.30    0.22 
   4   5  -4   42.24    1.30 
  -4  -5   4   43.69    1.46 
   3   5  -4    4.17    0.34 
  -3  -5   4    4.12    0.40 
   2   5  -4  135.23    2.96 
  -2  -5   4  133.72    3.28 
   1   5  -4   15.06    0.52 
  -1  -5   4   15.64    0.41 
  -1  -5   4   15.71    0.66 
   0   5  -4   76.92    1.70 
   0  -5   4   80.20    1.58 
   0  -5   4   77.12    2.00 
  -1   5  -4   10.87    0.31 
   1  -5   4   10.39    0.38 
   1  -5   4   11.08    0.49 
   2  -5   4    4.65    0.26 
   2  -5   4    5.06    0.31 
   3  -5   4    0.16    0.10 
   4  -5   4    1.22    0.19 
   5  -5   4    4.45    0.31 
   6  -5   4    1.96    0.25 
   6  -5   4    2.03    0.28 
   7  -5   4    1.48    0.26 
   8  -5   4    0.21    0.17 
   7   4  -4    0.76    0.23 
   6   4  -4   33.69    1.20 
   5   4  -4    5.29    0.43 
  -5  -4   4    4.87    0.48 
   4   4  -4   45.68    1.30 
  -4  -4   4   42.67    1.42 
   3   4  -4   15.71    0.61 
  -3  -4   4   15.88    0.70 
   2   4  -4    7.87    0.37 
  -2  -4   4    7.31    0.43 
   1   4  -4    6.40    0.29 
  -1  -4   4    6.79    0.23 
  -1  -4   4    6.02    0.36 
   0   4  -4    0.08    0.05 
   0  -4   4    0.02    0.04 
   0  -4   4    0.11    0.08 
  -1   4  -4    3.35    0.14 
   1  -4   4    3.88    0.24 
   1  -4   4    3.43    0.19 
  -2   4  -4    3.36    0.13 
   2  -4   4    3.67    0.23 
   2  -4   4    3.72    0.22 
   3  -4   4   15.98    0.55 
   3  -4   4   15.59    0.55 
   4  -4   4    3.94    0.25 
   4  -4   4    3.41    0.28 
   5  -4   4    8.56    0.39 
   5  -4   4    8.23    0.42 
   6  -4   4   -0.03    0.11 
   6  -4   4    0.03    0.10 
   7  -4   4    2.17    0.28 
   8  -4   4    0.30    0.17 
   7   3  -4    6.73    0.55 
   6   3  -4    8.24    0.53 
   5   3  -4    8.45    0.50 
  -5  -3   4    9.90    0.59 
   4   3  -4    8.73    0.46 
  -4  -3   4    7.75    0.49 
   3   3  -4    0.07    0.08 
  -3  -3   4   -0.01    0.09 
   2   3  -4    6.10    0.30 
  -2  -3   4    6.35    0.36 
   1   3  -4   46.48    1.09 
  -1  -3   4   45.90    0.94 
  -1  -3   4   45.69    1.25 
   0  -3   4    9.09    0.30 
   0  -3   4    9.59    0.39 
  -1   3  -4  126.53    2.55 
   1  -3   4  125.16    2.84 
   1  -3   4  127.71    2.44 
  -2   3  -4   19.13    0.47 
   2  -3   4   18.72    0.57 
   2  -3   4   18.18    0.54 
  -3   3  -4   43.21    0.97 
   3  -3   4   43.37    1.04 
   3  -3   4   41.51    1.07 
  -4   3  -4    1.69    0.15 
   4  -3   4    1.60    0.19 
   4  -3   4    1.70    0.16 
  -5   3  -4    5.12    0.29 
   5  -3   4    5.78    0.33 
   5  -3   4    5.32    0.29 
   6  -3   4    3.29    0.30 
   7  -3   4    0.23    0.13 
   8  -3   4   -0.17    0.13 
   8   2  -4    0.70    0.27 
   7   2  -4    0.28    0.20 
   6   2  -4    0.86    0.22 
   5   2  -4    0.61    0.17 
   4   2  -4    0.07    0.09 
  -4  -2   4    0.03    0.09 
   3   2  -4   14.01    0.53 
  -3  -2   4   14.46    0.60 
   2   2  -4    0.64    0.11 
  -2  -2   4    0.83    0.15 
   1   2  -4  105.43    2.21 
  -1  -2   4  103.56    2.42 
   0   2  -4   30.19    0.73 
   0  -2   4   30.92    0.70 
   0  -2   4   31.14    0.84 
   1  -2   4  135.29    2.57 
   1  -2   4  134.24    2.95 
  -2   2  -4   49.75    1.10 
   2  -2   4   49.65    1.16 
   2  -2   4   48.55    1.10 
   3  -2   4   34.28    0.86 
   3  -2   4   33.01    0.83 
  -4   2  -4    0.36    0.09 
   4  -2   4    0.32    0.09 
   4  -2   4    0.54    0.10 
  -5   2  -4    1.78    0.20 
   5  -2   4    1.70    0.20 
   5  -2   4    2.13    0.17 
  -6   2  -4    0.68    0.17 
   6  -2   4    0.54    0.15 
  -7   2  -4   -0.01    0.13 
   7  -2   4    0.09    0.12 
   8  -2   4    0.07    0.15 
   8   1  -4    0.82    0.28 
   7   1  -4    2.18    0.34 
   6   1  -4    2.25    0.30 
   5   1  -4   25.25    0.87 
   4   1  -4   12.23    0.51 
   3   1  -4   98.61    2.20 
   2   1  -4   24.76    0.68 
  -2  -1   4   24.68    0.77 
   1   1  -4  119.97    2.44 
  -1  -1   4  113.39    2.64 
  -1  -1   4  116.94    2.21 
   0   1  -4   35.96    0.85 
   0  -1   4   36.38    0.90 
   0  -1   4   36.50    0.80 
  -1   1  -4    5.34    0.22 
   1  -1   4    5.30    0.23 
   1  -1   4    5.70    0.20 
  -2   1  -4   46.14    1.07 
   2  -1   4   46.51    1.02 
   2  -1   4   44.21    1.01 
  -3   1  -4    1.39    0.15 
   3  -1   4    1.70    0.10 
   3  -1   4    1.56    0.15 
  -4   1  -4    6.74    0.35 
   4  -1   4    7.13    0.32 
   4  -1   4    7.21    0.26 
  -5   1  -4    1.59    0.21 
   5  -1   4    1.88    0.20 
  -6   1  -4   22.93    0.86 
   6  -1   4   23.51    0.74 
  -7   1  -4    1.13    0.25 
   7  -1   4    1.09    0.20 
   8   0  -4    2.60    0.39 
   7   0  -4    6.99    0.49 
   6   0  -4   16.41    0.70 
   5   0  -4    9.07    0.46 
   4   0  -4    6.95    0.36 
   3   0  -4    5.21    0.27 
   2   0  -4   40.93    1.00 
   1   0  -4    3.38    0.18 
   0   0  -4   15.62    0.46 
   0   0   4   16.42    0.45 
  -1   0  -4    0.16    0.06 
   1   0   4    0.14    0.05 
  -2   0  -4  121.70    2.55 
   2   0   4  116.77    2.31 
  -3   0  -4    6.08    0.32 
   3   0   4    6.21    0.28 
  -4   0  -4   76.53    1.85 
   4   0   4   76.23    1.64 
  -5   0  -4    7.41    0.41 
   5   0   4    6.31    0.33 
  -6   0  -4   10.40    0.57 
   6   0   4   10.45    0.45 
  -7   0  -4    3.12    0.39 
  -8   0  -4    0.71    0.24 
   9  -1  -4    2.32    0.40 
   8  -1  -4    2.48    0.37 
   7  -1  -4    0.55    0.19 
   6  -1  -4    2.63    0.29 
   5  -1  -4    0.43    0.13 
   4  -1  -4   15.05    0.54 
   3  -1  -4   13.76    0.47 
   2  -1  -4   20.56    0.59 
   1  -1  -4   32.48    0.81 
   0  -1  -4  272.68    5.46 
  -1  -1  -4   24.59    0.69 
  -1  -1  -4   25.10    0.56 
   1   1   4   23.96    0.63 
  -2  -1  -4  105.59    2.30 
   2   1   4  102.45    2.06 
  -3  -1  -4   12.40    0.50 
   3   1   4   12.44    0.42 
  -4  -1  -4   12.64    0.56 
   4   1   4   13.49    0.45 
  -5  -1  -4    2.30    0.28 
   5   1   4    1.91    0.19 
  -6  -1  -4    0.79    0.21 
  -7  -1  -4    0.09    0.16 
  -8  -1  -4    0.32    0.22 
   9  -2  -4    0.18    0.22 
   8  -2  -4    0.01    0.17 
   7  -2  -4    0.79    0.20 
   6  -2  -4    3.37    0.30 
   5  -2  -4    1.35    0.19 
   4  -2  -4   22.68    0.68 
   3  -2  -4    1.39    0.15 
   2  -2  -4   17.64    0.53 
   1  -2  -4   23.11    0.65 
   1  -2  -4   23.85    0.65 
   0  -2  -4   11.30    0.35 
   0  -2  -4   11.25    0.41 
  -1  -2  -4   43.99    1.13 
  -1  -2  -4   46.15    1.04 
  -2  -2  -4   18.85    0.50 
  -2  -2  -4   19.36    0.65 
   2   2   4   18.86    0.55 
  -3  -2  -4    3.59    0.29 
   3   2   4    3.84    0.22 
  -4  -2  -4    3.67    0.34 
   4   2   4    4.11    0.24 
  -5  -2  -4    1.73    0.28 
  -6  -2  -4    0.02    0.14 
  -7  -2  -4    5.81    0.53 
   8  -3  -4    0.60    0.21 
   7  -3  -4    2.63    0.29 
   6  -3  -4    0.21    0.12 
   5  -3  -4   10.62    0.44 
   4  -3  -4    2.68    0.20 
   3  -3  -4   17.13    0.54 
   3  -3  -4   16.65    0.61 
   2  -3  -4   35.61    0.99 
   2  -3  -4   35.49    0.91 
   1  -3  -4    1.88    0.16 
   1  -3  -4    1.63    0.16 
   0  -3  -4   19.73    0.62 
  -1  -3  -4   13.10    0.42 
  -1  -3  -4   13.88    0.52 
  -2  -3  -4    1.36    0.13 
  -2  -3  -4    1.28    0.19 
  -3  -3  -4   26.52    0.89 
  -4  -3  -4    4.69    0.41 
  -5  -3  -4   14.66    0.72 
  -6  -3  -4   10.68    0.66 
  -7  -3  -4    3.17    0.46 
   8  -4  -4    0.02    0.18 
   7  -4  -4    0.86    0.23 
   6  -4  -4    0.07    0.12 
   6  -4  -4    0.19    0.14 
   5  -4  -4    1.79    0.26 
   5  -4  -4    1.76    0.20 
   4  -4  -4    1.09    0.19 
   4  -4  -4    1.34    0.17 
   3  -4  -4   -0.01    0.09 
   3  -4  -4    0.20    0.09 
   2  -4  -4    0.97    0.15 
   2  -4  -4    1.08    0.14 
   1  -4  -4   19.62    0.64 
   1  -4  -4   19.10    0.62 
   0  -4  -4   28.01    0.83 
   0  -4  -4   27.80    0.79 
  -1  -4  -4   44.92    1.22 
  -1  -4  -4   43.06    1.14 
  -2  -4  -4   94.29    2.23 
  -2  -4  -4   97.47    2.30 
  -3  -4  -4   27.45    0.97 
  -4  -4  -4   49.98    1.53 
  -5  -4  -4    5.60    0.51 
  -6  -4  -4    2.85    0.45 
   8  -5  -4    0.20    0.21 
   7  -5  -4    0.77    0.25 
   6  -5  -4    0.69    0.20 
   5  -5  -4    2.45    0.23 
   5  -5  -4    2.39    0.31 
   4  -5  -4    7.91    0.37 
   4  -5  -4    7.56    0.46 
   3  -5  -4   36.64    1.12 
   3  -5  -4   36.67    0.99 
   2  -5  -4   79.68    1.97 
   2  -5  -4   74.66    1.79 
   1  -5  -4   44.38    1.18 
   1  -5  -4   43.05    1.21 
   0  -5  -4  111.91    2.58 
   0  -5  -4  114.37    2.66 
  -1  -5  -4   16.65    0.66 
  -1  -5  -4   14.64    0.56 
  -2  -5  -4   25.17    0.90 
  -3  -5  -4    0.96    0.21 
  -4  -5  -4    0.03    0.15 
  -5  -5  -4    0.15    0.18 
   8  -6  -4    0.37    0.23 
   7  -6  -4    1.81    0.37 
   6  -6  -4   14.13    0.73 
   5  -6  -4    8.10    0.52 
   4  -6  -4   72.22    1.99 
   3  -6  -4   10.28    0.55 
   3  -6  -4   11.05    0.48 
   2  -6  -4   56.14    1.53 
   2  -6  -4   52.86    1.40 
   1  -6  -4    8.15    0.43 
   1  -6  -4    7.13    0.40 
   0  -6  -4    5.08    0.34 
   0  -6  -4    5.19    0.36 
  -1  -6  -4    1.20    0.21 
  -1  -6  -4    1.35    0.22 
  -2  -6  -4    0.23    0.14 
  -3  -6  -4    0.04    0.16 
  -4  -6  -4    0.93    0.28 
   7  -7  -4    1.90    0.34 
   6  -7  -4   11.78    0.69 
   5  -7  -4    1.50    0.31 
   4  -7  -4    3.53    0.40 
   3  -7  -4    0.34    0.16 
   2  -7  -4    0.60    0.18 
   1  -7  -4    0.15    0.14 
   1  -7  -4    0.10    0.12 
   0  -7  -4    0.08    0.11 
   0  -7  -4    0.18    0.16 
  -1  -7  -4    0.14    0.15 
  -2  -7  -4    1.24    0.27 
  -3  -7  -4    3.16    0.42 
   6  -8  -4    1.18    0.31 
   5  -8  -4   -0.01    0.19 
   4  -8  -4    0.84    0.25 
   3  -8  -4    1.62    0.30 
   2  -8  -4    0.58    0.22 
   1  -8  -4    7.34    0.50 
  -2  -8  -4    0.48    0.24 
   4  -9  -4    1.25    0.31 
   3  -9  -4    5.95    0.54 
   2  -9  -4    0.29    0.20 
   1  -9  -4    3.18    0.45 
  -1  -9   5    3.53    0.50 
   0  -9   5    2.32    0.42 
   1  -9   5    0.60    0.27 
   2  -9   5    0.11    0.20 
   3  -9   5    0.11    0.20 
   4  -9   5    0.57    0.19 
   4  -9   5    0.83    0.28 
   5  -9   5    0.05    0.24 
   5  -9   5    0.22    0.18 
  -3  -8   5    0.22    0.21 
  -2  -8   5    1.81    0.35 
  -1  -8   5    0.91    0.26 
   0  -8   5    0.06    0.19 
   1  -8   5   -0.13    0.16 
   2  -8   5    1.27    0.22 
   2  -8   5    1.63    0.31 
   3  -8   5    1.28    0.23 
   3  -8   5    1.10    0.26 
   4  -8   5   10.09    0.61 
   4  -8   5    9.76    0.52 
   5  -8   5    2.01    0.34 
   5  -8   5    1.39    0.24 
   6  -8   5   14.87    0.77 
   6  -8   5   14.66    0.70 
   4   7  -5    0.15    0.19 
  -4  -7   5    0.21    0.23 
   3   7  -5    0.78    0.24 
  -3  -7   5    0.77    0.24 
  -2  -7   5    0.30    0.18 
  -1  -7   5   -0.08    0.13 
   0  -7   5    9.60    0.58 
   1  -7   5    1.54    0.20 
   1  -7   5    1.90    0.30 
   2  -7   5   40.14    1.06 
   2  -7   5   39.15    1.27 
   3  -7   5    5.59    0.36 
   3  -7   5    5.80    0.43 
   4  -7   5   33.64    1.13 
   4  -7   5   32.17    1.01 
   5  -7   5    4.87    0.42 
   5  -7   5    4.48    0.39 
   6  -7   5    8.02    0.49 
   6  -7   5    7.31    0.51 
   7  -7   5    0.29    0.17 
   5   6  -5    0.31    0.19 
  -5  -6   5    0.49    0.25 
   4   6  -5    0.95    0.24 
  -4  -6   5    0.88    0.26 
   3   6  -5    0.65    0.19 
  -3  -6   5    0.32    0.17 
   2   6  -5   25.87    0.84 
  -2  -6   5   24.95    1.00 
  -1  -6   5   10.52    0.59 
   0  -6   5   74.01    1.54 
   0  -6   5   72.35    2.00 
   1  -6   5   24.14    0.90 
   1  -6   5   26.11    0.71 
   2  -6   5   32.07    1.04 
   2  -6   5   31.63    0.88 
   3  -6   5    9.68    0.50 
   3  -6   5    9.74    0.45 
   4  -6   5    3.94    0.34 
   4  -6   5    3.71    0.32 
   5  -6   5    0.00    0.11 
   5  -6   5   -0.10    0.12 
   6  -6   5    0.79    0.21 
   6  -6   5    0.99    0.20 
   7  -6   5    0.96    0.24 
   8  -6   5    0.04    0.16 
   6   5  -5    5.44    0.51 
  -6  -5   5    4.80    0.57 
   5   5  -5    0.72    0.23 
  -5  -5   5    0.87    0.26 
   4   5  -5   22.85    0.88 
  -4  -5   5   23.61    1.01 
   3   5  -5   10.78    0.51 
  -3  -5   5    8.89    0.55 
   2   5  -5   11.70    0.51 
  -2  -5   5   12.74    0.64 
   1   5  -5   23.35    0.70 
  -1  -5   5   22.88    0.88 
   0   5  -5   -0.05    0.05 
   0  -5   5   -0.04    0.04 
   0  -5   5   -0.04    0.09 
   1  -5   5    9.41    0.37 
   1  -5   5    8.85    0.45 
   2  -5   5    1.18    0.17 
   2  -5   5    1.27    0.18 
   3  -5   5    0.02    0.09 
   3  -5   5    0.02    0.08 
   4  -5   5    7.20    0.39 
   4  -5   5    7.26    0.39 
   5  -5   5    2.26    0.24 
   5  -5   5    2.29    0.26 
   6  -5   5    1.63    0.25 
   7  -5   5    2.15    0.31 
   8  -5   5    0.24    0.17 
   7   4  -5    3.71    0.45 
   6   4  -5    1.71    0.32 
   5   4  -5   12.89    0.66 
  -5  -4   5   13.84    0.76 
   4   4  -5   -0.02    0.11 
  -4  -4   5   -0.08    0.13 
   3   4  -5    7.12    0.39 
  -3  -4   5    6.85    0.46 
   2   4  -5    0.44    0.11 
  -2  -4   5    0.49    0.16 
   1   4  -5    0.11    0.06 
  -1  -4   5    0.09    0.04 
  -1  -4   5   -0.01    0.08 
   0   4  -5   22.14    0.60 
   0  -4   5   21.65    0.75 
   0  -4   5   23.16    0.59 
  -1   4  -5    8.35    0.27 
   1  -4   5    7.89    0.32 
   1  -4   5    8.23    0.39 
  -2   4  -5   15.27    0.41 
   2  -4   5   15.23    0.51 
   2  -4   5   15.55    0.55 
   3  -4   5   12.50    0.48 
   3  -4   5   12.33    0.47 
   4  -4   5    1.50    0.21 
   4  -4   5    2.18    0.20 
   5  -4   5    5.09    0.34 
   5  -4   5    5.63    0.31 
   6  -4   5    0.77    0.19 
   7  -4   5    2.15    0.29 
   8  -4   5    0.76    0.23 
   7   3  -5    1.33    0.28 
   6   3  -5    3.97    0.41 
   5   3  -5    0.24    0.14 
   4   3  -5   -0.13    0.08 
  -4  -3   5   -0.06    0.11 
   3   3  -5    1.71    0.21 
  -3  -3   5    2.22    0.29 
   2   3  -5    8.97    0.38 
  -2  -3   5    9.04    0.46 
   1   3  -5    0.50    0.10 
  -1  -3   5    0.36    0.11 
  -1  -3   5    0.45    0.08 
   0   3  -5   29.65    0.74 
   0  -3   5   29.76    0.88 
   0  -3   5   29.31    0.71 
  -1   3  -5    5.01    0.21 
   1  -3   5    4.79    0.24 
   1  -3   5    4.98    0.27 
  -2   3  -5   52.04    1.15 
   2  -3   5   50.50    1.28 
   2  -3   5   52.98    1.19 
  -3   3  -5   18.30    0.52 
   3  -3   5   18.19    0.56 
   3  -3   5   16.62    0.57 
  -4   3  -5   10.58    0.40 
   4  -3   5   10.08    0.38 
   4  -3   5    9.38    0.43 
  -5   3  -5   12.70    0.49 
   5  -3   5   11.69    0.51 
   6  -3   5   -0.08    0.10 
   7  -3   5    1.26    0.23 
   8  -3   5   -0.03    0.14 
   8   2  -5    0.65    0.25 
   7   2  -5    0.26    0.20 
   6   2  -5    0.51    0.19 
   5   2  -5    3.56    0.34 
   4   2  -5   11.58    0.52 
   3   2  -5    7.93    0.38 
  -3  -2   5    7.50    0.44 
   2   2  -5   52.99    1.29 
  -2  -2   5   54.19    1.47 
   1   2  -5   19.29    0.57 
  -1  -2   5   19.24    0.65 
  -1  -2   5   19.91    0.52 
   0   2  -5   98.34    2.08 
   0  -2   5   98.41    2.27 
   0  -2   5   98.34    1.94 
  -1   2  -5   18.88    0.52 
   1  -2   5   19.44    0.56 
   1  -2   5   19.52    0.55 
  -2   2  -5    0.21    0.06 
   2  -2   5    0.25    0.07 
   2  -2   5    0.21    0.07 
  -3   2  -5    5.39    0.27 
   3  -2   5    5.49    0.28 
   3  -2   5    5.52    0.23 
  -4   2  -5    5.30    0.29 
   4  -2   5    5.04    0.30 
   4  -2   5    5.03    0.22 
  -5   2  -5    0.03    0.08 
   5  -2   5    0.07    0.09 
  -6   2  -5    0.51    0.15 
   6  -2   5    0.33    0.12 
  -7   2  -5    0.62    0.22 
   7  -2   5    0.69    0.18 
   8  -2   5    2.78    0.33 
   8   1  -5   -0.05    0.17 
   7   1  -5    0.77    0.24 
   6   1  -5    4.58    0.41 
   5   1  -5    0.68    0.17 
   4   1  -5   39.81    1.12 
   3   1  -5    2.01    0.20 
   2   1  -5   48.67    1.17 
  -2  -1   5   46.47    1.30 
   1   1  -5    6.36    0.28 
  -1  -1   5    6.08    0.25 
  -1  -1   5    6.36    0.31 
   0   1  -5    5.57    0.25 
   0  -1   5    6.10    0.25 
   0  -1   5    5.83    0.26 
  -1   1  -5    6.65    0.27 
   1  -1   5    6.50    0.24 
   1  -1   5    6.29    0.27 
  -2   1  -5    6.00    0.27 
   2  -1   5    6.01    0.19 
   2  -1   5    6.06    0.28 
  -3   1  -5    3.52    0.23 
   3  -1   5    3.95    0.24 
  -4   1  -5    5.30    0.31 
   4  -1   5    5.54    0.31 
  -5   1  -5    6.00    0.38 
   5  -1   5    6.31    0.34 
  -6   1  -5    6.09    0.42 
   6  -1   5    5.89    0.36 
  -7   1  -5    3.06    0.37 
   7  -1   5    3.03    0.30 
  -8   1  -5    1.21    0.31 
   8   0  -5    3.08    0.43 
   7   0  -5    0.64    0.23 
   6   0  -5    3.86    0.37 
   5   0  -5    0.00    0.10 
   4   0  -5    1.71    0.20 
   3   0  -5    1.95    0.19 
   2   0  -5    6.88    0.30 
   1   0  -5   22.80    0.64 
   0   0  -5   52.92    1.24 
   0   0   5   54.35    1.18 
  -1   0  -5   51.97    1.24 
   1   0   5   53.33    1.17 
  -2   0  -5   41.59    1.06 
   2   0   5   41.05    0.98 
  -3   0  -5   14.48    0.54 
   3   0   5   14.03    0.47 
  -4   0  -5    1.25    0.19 
   4   0   5    1.20    0.17 
  -5   0  -5    2.00    0.27 
   5   0   5    2.02    0.22 
  -6   0  -5    0.08    0.12 
   6   0   5    0.08    0.10 
  -7   0  -5   -0.04    0.15 
  -8   0  -5    0.50    0.25 
   8  -1  -5   -0.11    0.17 
   7  -1  -5    1.31    0.26 
   6  -1  -5    0.02    0.10 
   5  -1  -5    0.53    0.14 
   4  -1  -5   20.13    0.68 
   3  -1  -5    0.43    0.11 
   2  -1  -5   42.50    1.06 
   1  -1  -5   22.62    0.65 
   0  -1  -5   14.55    0.48 
  -1  -1  -5   33.36    0.90 
  -1  -1  -5   34.04    0.76 
   1   1   5   33.18    0.84 
  -2  -1  -5   33.98    0.95 
   2   1   5   35.26    0.87 
  -3  -1  -5    4.28    0.30 
   3   1   5    5.01    0.26 
  -4  -1  -5    0.23    0.12 
   4   1   5    0.68    0.13 
  -5  -1  -5    0.00    0.10 
   5   1   5    0.04    0.09 
  -6  -1  -5    3.93    0.41 
  -7  -1  -5    0.93    0.25 
   8  -2  -5    0.20    0.20 
   7  -2  -5    0.46    0.18 
   6  -2  -5    5.51    0.37 
   5  -2  -5    6.09    0.35 
   4  -2  -5    0.65    0.13 
   3  -2  -5   39.31    1.03 
   2  -2  -5   21.66    0.65 
   1  -2  -5   20.18    0.60 
   1  -2  -5   19.83    0.61 
   0  -2  -5   17.77    0.58 
   0  -2  -5   17.94    0.51 
  -1  -2  -5    2.61    0.13 
  -1  -2  -5    2.40    0.21 
  -2  -2  -5    0.09    0.08 
   2   2   5   -0.02    0.05 
  -3  -2  -5    9.48    0.48 
   3   2   5    9.63    0.39 
  -4  -2  -5    2.15    0.28 
   4   2   5    2.18    0.21 
  -5  -2  -5    5.02    0.44 
  -6  -2  -5    7.77    0.55 
  -7  -2  -5    2.79    0.43 
   8  -3  -5    0.43    0.21 
   7  -3  -5    1.43    0.25 
   6  -3  -5    1.79    0.24 
   5  -3  -5    2.09    0.23 
   4  -3  -5   20.07    0.66 
   3  -3  -5    2.47    0.22 
   3  -3  -5    2.37    0.24 
   2  -3  -5   16.13    0.57 
   2  -3  -5   16.11    0.55 
   1  -3  -5    0.44    0.10 
   1  -3  -5    0.60    0.12 
   0  -3  -5    0.25    0.08 
   0  -3  -5    0.11    0.07 
  -1  -3  -5    8.85    0.42 
  -1  -3  -5    8.70    0.32 
  -2  -3  -5   15.57    0.62 
  -3  -3  -5    7.87    0.46 
  -4  -3  -5   39.46    1.28 
  -5  -3  -5    4.61    0.45 
  -6  -3  -5   16.57    0.85 
  -7  -3  -5    2.33    0.40 
   8  -4  -5    0.66    0.25 
   7  -4  -5    1.06    0.23 
   7  -4  -5    0.56    0.23 
   6  -4  -5    1.07    0.19 
   6  -4  -5    0.99    0.23 
   5  -4  -5    0.12    0.11 
   5  -4  -5    0.08    0.10 
   4  -4  -5    0.91    0.19 
   4  -4  -5    0.63    0.15 
   3  -4  -5    5.57    0.35 
   3  -4  -5    5.99    0.32 
   2  -4  -5    0.37    0.12 
   2  -4  -5    0.51    0.12 
   1  -4  -5   11.28    0.48 
   1  -4  -5   13.60    0.50 
   0  -4  -5   33.18    0.98 
  -1  -4  -5    4.34    0.25 
  -1  -4  -5    3.70    0.31 
  -2  -4  -5   51.46    1.46 
  -3  -4  -5    1.14    0.23 
  -4  -4  -5   10.24    0.61 
  -5  -4  -5    0.81    0.26 
  -6  -4  -5    0.52    0.23 
   8  -5  -5    0.79    0.26 
   7  -5  -5    0.39    0.19 
   6  -5  -5    0.22    0.15 
   5  -5  -5    0.91    0.18 
   5  -5  -5    1.03    0.23 
   4  -5  -5    9.46    0.53 
   4  -5  -5   11.33    0.47 
   3  -5  -5    0.17    0.12 
   3  -5  -5    0.06    0.10 
   2  -5  -5   61.90    1.58 
   2  -5  -5   65.32    1.70 
   1  -5  -5    0.24    0.11 
   1  -5  -5   -0.01    0.07 
   0  -5  -5   25.81    0.85 
   0  -5  -5   24.26    0.79 
  -1  -5  -5    0.61    0.17 
  -2  -5  -5    0.26    0.14 
  -3  -5  -5    1.48    0.29 
  -4  -5  -5    0.04    0.15 
  -5  -5  -5    0.53    0.23 
   7  -6  -5    0.62    0.22 
   6  -6  -5   10.05    0.62 
   5  -6  -5    0.20    0.16 
   4  -6  -5    4.53    0.40 
   3  -6  -5    3.10    0.33 
   3  -6  -5    2.72    0.27 
   2  -6  -5    0.92    0.18 
   2  -6  -5    1.06    0.21 
   1  -6  -5    1.80    0.24 
   1  -6  -5    2.53    0.28 
   0  -6  -5    0.67    0.17 
   0  -6  -5    0.79    0.18 
  -1  -6  -5    0.16    0.14 
  -2  -6  -5    1.82    0.30 
  -3  -6  -5    1.15    0.27 
  -4  -6  -5    0.39    0.23 
   6  -7  -5    0.12    0.19 
   5  -7  -5    3.99    0.45 
   4  -7  -5    0.37    0.21 
   3  -7  -5    0.68    0.20 
   2  -7  -5    0.51    0.19 
   1  -7  -5    1.07    0.22 
   1  -7  -5    1.86    0.28 
   0  -7  -5    0.38    0.17 
  -1  -7  -5    5.14    0.45 
  -2  -7  -5    0.21    0.21 
  -3  -7  -5    2.76    0.41 
   5  -8  -5    0.65    0.26 
   4  -8  -5    0.32    0.19 
   3  -8  -5    0.72    0.24 
   2  -8  -5   -0.02    0.17 
  -1  -9   6    0.22    0.24 
   0  -9   6    0.98    0.32 
   1  -9   6    0.29    0.25 
   2  -9   6   -0.19    0.19 
   3  -9   6   -0.08    0.19 
   4  -9   6    0.00    0.20 
   4  -9   6    0.04    0.16 
   5  -9   6    0.51    0.27 
   5  -9   6    0.18    0.19 
  -3  -8   6    0.65    0.26 
  -2  -8   6    0.23    0.20 
  -1  -8   6    0.30    0.24 
   0  -8   6   -0.10    0.18 
   1  -8   6   -0.08    0.17 
   2  -8   6   -0.13    0.16 
   3  -8   6   -0.05    0.17 
   3  -8   6    0.21    0.14 
   4  -8   6    1.79    0.32 
   4  -8   6    1.27    0.25 
   5  -8   6   -0.15    0.21 
   5  -8   6    0.08    0.13 
   6  -8   6    2.64    0.36 
   4   7  -6   -0.11    0.19 
  -4  -7   6    0.04    0.19 
  -3  -7   6    0.05    0.17 
  -2  -7   6    0.07    0.20 
  -1  -7   6    0.27    0.20 
   0  -7   6    0.61    0.21 
   1  -7   6    0.25    0.13 
   1  -7   6    0.13    0.18 
   2  -7   6    5.74    0.35 
   2  -7   6    5.84    0.43 
   3  -7   6    0.09    0.15 
   3  -7   6    0.04    0.11 
   4  -7   6    1.92    0.28 
   4  -7   6    2.15    0.32 
   5  -7   6   -0.06    0.11 
   5  -7   6    0.17    0.17 
   6  -7   6    0.40    0.17 
   7  -7   6    0.22    0.15 
   5   6  -6   -0.13    0.15 
  -5  -6   6    0.26    0.23 
   4   6  -6    1.14    0.26 
  -4  -6   6    1.70    0.35 
   3   6  -6    0.12    0.13 
  -3  -6   6   -0.04    0.12 
   2   6  -6    2.50    0.27 
  -2  -6   6    2.73    0.38 
  -1  -6   6   -0.01    0.13 
   0  -6   6    0.18    0.15 
   1  -6   6    0.05    0.13 
   1  -6   6    0.01    0.08 
   2  -6   6    5.58    0.38 
   2  -6   6    5.60    0.33 
   3  -6   6    0.12    0.13 
   3  -6   6   -0.08    0.10 
   4  -6   6    0.37    0.14 
   4  -6   6    0.67    0.18 
   5  -6   6    0.18    0.15 
   5  -6   6    0.11    0.12 
   6  -6   6    0.48    0.16 
   7  -6   6    0.26    0.18 
   6   5  -6    0.09    0.16 
   5   5  -6    1.72    0.29 
  -5  -5   6    2.41    0.42 
   4   5  -6    0.30    0.15 
  -4  -5   6    0.22    0.18 
   3   5  -6    1.03    0.21 
  -3  -5   6    1.24    0.29 
   2   5  -6    7.34    0.39 
  -2  -5   6    8.23    0.51 
   1   5  -6    1.15    0.16 
  -1  -5   6    1.05    0.23 
   0   5  -6    7.38    0.31 
   0  -5   6    5.82    0.29 
   0  -5   6    8.06    0.45 
   1  -5   6    7.25    0.33 
   1  -5   6    7.06    0.41 
   2  -5   6    0.21    0.11 
   2  -5   6    0.15    0.09 
   3  -5   6    1.91    0.22 
   3  -5   6    1.80    0.22 
   4  -5   6    0.30    0.13 
   4  -5   6    0.32    0.13 
   5  -5   6    0.16    0.12 
   6  -5   6    0.16    0.15 
   7  -5   6    0.31    0.16 
   8  -5   6    0.48    0.20 
   7   4  -6    0.67    0.24 
   6   4  -6    3.68    0.43 
   5   4  -6    0.04    0.13 
  -5  -4   6    0.07    0.16 
   4   4  -6   15.26    0.66 
  -4  -4   6   14.92    0.77 
   3   4  -6    3.41    0.30 
  -3  -4   6    3.34    0.38 
   2   4  -6    6.48    0.34 
  -2  -4   6    6.21    0.42 
   1   4  -6    4.95    0.27 
  -1  -4   6    4.97    0.23 
  -1  -4   6    5.55    0.37 
   0  -4   6    0.85    0.12 
   0  -4   6    1.38    0.20 
  -1   4  -6    0.26    0.07 
   1  -4   6    0.06    0.08 
   1  -4   6    0.28    0.08 
  -2   4  -6    0.08    0.06 
   2  -4   6    0.00    0.07 
   2  -4   6    0.07    0.08 
   3  -4   6    0.00    0.08 
   3  -4   6    0.06    0.08 
   4  -4   6    3.59    0.30 
   4  -4   6    3.61    0.25 
   5  -4   6    1.86    0.26 
   6  -4   6    3.62    0.36 
   7  -4   6    0.39    0.17 
   8  -4   6    0.27    0.18 
   7   3  -6    0.11    0.15 
   6   3  -6    1.33    0.26 
   5   3  -6    1.30    0.24 
   4   3  -6    0.52    0.16 
  -4  -3   6    0.50    0.19 
   3   3  -6    3.12    0.27 
  -3  -3   6    2.97    0.34 
   2   3  -6    3.83    0.25 
  -2  -3   6    4.24    0.34 
   1   3  -6    6.27    0.29 
  -1  -3   6    7.03    0.38 
  -1  -3   6    6.43    0.27 
   0   3  -6    1.30    0.14 
   0  -3   6    1.25    0.14 
   0  -3   6    1.45    0.18 
   1  -3   6    5.58    0.29 
   1  -3   6    5.30    0.27 
  -2   3  -6    6.51    0.28 
   2  -3   6    6.29    0.31 
   2  -3   6    7.14    0.32 
  -3   3  -6    0.95    0.13 
   3  -3   6    1.25    0.17 
   3  -3   6    1.21    0.14 
  -4   3  -6    2.65    0.21 
   4  -3   6    2.58    0.25 
   5  -3   6    0.28    0.13 
   6  -3   6    0.16    0.13 
   7  -3   6    0.35    0.16 
   8  -3   6    0.10    0.17 
   8   2  -6    0.09    0.21 
   7   2  -6    0.05    0.20 
   6   2  -6    1.22    0.24 
   5   2  -6    0.29    0.13 
   4   2  -6    2.25    0.26 
   3   2  -6    0.43    0.12 
  -3  -2   6    0.40    0.15 
   2   2  -6    1.73    0.18 
  -2  -2   6    2.46    0.25 
   1   2  -6    1.40    0.15 
  -1  -2   6    2.05    0.21 
  -1  -2   6    1.83    0.15 
   0   2  -6    9.15    0.35 
   0  -2   6    8.97    0.34 
   0  -2   6    8.87    0.38 
  -1   2  -6    0.09    0.05 
   1  -2   6    0.17    0.07 
   1  -2   6    0.14    0.06 
  -2   2  -6    0.16    0.06 
   2  -2   6    0.23    0.07 
   2  -2   6    0.20    0.07 
  -3   2  -6    1.92    0.18 
   3  -2   6    2.31    0.15 
   3  -2   6    2.59    0.23 
  -4   2  -6    1.56    0.19 
   4  -2   6    1.63    0.21 
  -5   2  -6    2.82    0.27 
   5  -2   6    2.44    0.27 
  -6   2  -6    0.01    0.11 
   6  -2   6    0.04    0.11 
   7  -2   6    0.54    0.19 
   8  -2   6    0.27    0.20 
   8   1  -6    0.01    0.21 
   7   1  -6    0.05    0.17 
   6   1  -6    0.19    0.17 
   5   1  -6    1.20    0.22 
   4   1  -6    1.33    0.20 
   3   1  -6    0.05    0.07 
   2   1  -6   15.08    0.51 
   1   1  -6   12.84    0.46 
  -1  -1   6   13.36    0.44 
   0   1  -6    4.66    0.24 
   0  -1   6    4.88    0.25 
   0  -1   6    4.50    0.23 
  -1   1  -6   40.47    0.99 
   1  -1   6   37.85    0.94 
   1  -1   6   38.65    0.95 
  -2   1  -6   12.25    0.45 
   2  -1   6   12.60    0.45 
  -3   1  -6    9.79    0.42 
   3  -1   6    9.84    0.42 
  -4   1  -6    7.77    0.41 
   4  -1   6    8.01    0.39 
  -5   1  -6    0.12    0.11 
   5  -1   6    0.20    0.12 
  -6   1  -6    0.01    0.12 
   6  -1   6    0.22    0.14 
  -7   1  -6    0.17    0.19 
   7  -1   6    0.03    0.14 
   8   0  -6    0.31    0.23 
   7   0  -6    1.41    0.30 
   6   0  -6    2.42    0.32 
   5   0  -6    2.05    0.26 
   4   0  -6    1.12    0.18 
   3   0  -6    3.33    0.25 
   2   0  -6   13.11    0.48 
   1   0  -6    4.51    0.25 
   0   0  -6   17.14    0.57 
   0   0   6   20.18    0.58 
  -1   0  -6    2.14    0.19 
   1   0   6    1.90    0.19 
  -2   0  -6    0.57    0.12 
   2   0   6    0.50    0.11 
  -3   0  -6    0.14    0.09 
   3   0   6    0.42    0.11 
  -4   0  -6    4.38    0.34 
   4   0   6    3.45    0.27 
  -5   0  -6   -0.04    0.11 
   5   0   6    0.08    0.10 
  -6   0  -6    0.23    0.15 
   6   0   6    0.01    0.11 
  -7   0  -6    0.22    0.19 
   8  -1  -6    1.25    0.30 
   7  -1  -6    0.38    0.20 
   6  -1  -6    0.02    0.13 
   5  -1  -6    2.00    0.25 
   4  -1  -6    8.67    0.41 
   3  -1  -6    5.44    0.30 
   2  -1  -6    4.93    0.28 
   1  -1  -6    1.12    0.15 
   0  -1  -6    1.91    0.19 
  -1  -1  -6    0.66    0.13 
  -1  -1  -6    0.90    0.07 
   1   1   6    0.78    0.14 
  -2  -1  -6    0.19    0.09 
   2   1   6    0.35    0.09 
  -3  -1  -6    0.34    0.13 
   3   1   6    0.18    0.10 
  -4  -1  -6   -0.04    0.08 
   4   1   6   -0.05    0.08 
  -5  -1  -6    0.04    0.12 
   5   1   6   -0.08    0.10 
  -6  -1  -6    0.12    0.14 
  -7  -1  -6    0.07    0.18 
   8  -2  -6    2.63    0.39 
   7  -2  -6    0.44    0.19 
   6  -2  -6    0.94    0.20 
   5  -2  -6    0.09    0.11 
   4  -2  -6    5.37    0.32 
   3  -2  -6    0.95    0.16 
   2  -2  -6   10.20    0.43 
   1  -2  -6    0.12    0.07 
   1  -2  -6    0.08    0.07 
   0  -2  -6    2.17    0.15 
   0  -2  -6    2.26    0.22 
  -1  -2  -6    3.86    0.26 
  -2  -2  -6    0.54    0.14 
   2   2   6    0.77    0.15 
  -3  -2  -6    1.37    0.22 
   3   2   6    1.48    0.19 
  -4  -2  -6    0.00    0.10 
   4   2   6    0.00    0.10 
  -5  -2  -6    0.05    0.14 
   5   2   6    0.18    0.12 
  -6  -2  -6    0.89    0.23 
  -7  -2  -6    1.11    0.30 
   8  -3  -6    0.66    0.24 
   7  -3  -6    0.25    0.17 
   6  -3  -6    1.34    0.23 
   5  -3  -6    0.21    0.12 
   4  -3  -6    1.77    0.22 
   3  -3  -6    2.50    0.26 
   3  -3  -6    2.34    0.23 
   2  -3  -6    5.15    0.30 
   2  -3  -6    4.95    0.30 
   1  -3  -6    0.46    0.12 
   1  -3  -6    0.63    0.12 
   0  -3  -6    0.50    0.13 
   0  -3  -6    0.78    0.11 
  -1  -3  -6    0.07    0.08 
  -2  -3  -6    0.48    0.15 
  -3  -3  -6    0.06    0.10 
  -4  -3  -6    0.25    0.15 
  -5  -3  -6    0.18    0.16 
  -6  -3  -6    0.11    0.17 
   8  -4  -6    0.32    0.20 
   7  -4  -6    0.63    0.21 
   7  -4  -6    0.79    0.23 
   6  -4  -6   -0.13    0.12 
   6  -4  -6    0.36    0.15 
   5  -4  -6    0.27    0.15 
   5  -4  -6    0.17    0.12 
   4  -4  -6    0.03    0.10 
   4  -4  -6    0.01    0.10 
   3  -4  -6    0.72    0.17 
   3  -4  -6    0.79    0.16 
   2  -4  -6    2.56    0.25 
   2  -4  -6    2.29    0.24 
   1  -4  -6    1.59    0.19 
   1  -4  -6    1.37    0.20 
   0  -4  -6    6.93    0.32 
   0  -4  -6    6.15    0.37 
  -1  -4  -6   -0.02    0.09 
  -2  -4  -6    0.07    0.11 
  -3  -4  -6    0.24    0.14 
  -4  -4  -6    1.92    0.33 
  -5  -4  -6    0.12    0.20 
   7  -5  -6    0.66    0.22 
   6  -5  -6    2.82    0.37 
   5  -5  -6    0.70    0.17 
   5  -5  -6    1.10    0.24 
   4  -5  -6    3.24    0.29 
   4  -5  -6    3.35    0.34 
   3  -5  -6   -0.09    0.09 
   3  -5  -6    0.03    0.11 
   2  -5  -6    0.60    0.15 
   2  -5  -6    0.60    0.17 
   1  -5  -6    1.74    0.21 
   1  -5  -6    1.40    0.22 
   0  -5  -6   13.31    0.60 
  -1  -5  -6    2.55    0.31 
  -2  -5  -6    5.45    0.46 
  -3  -5  -6    2.00    0.33 
  -4  -5  -6    0.24    0.21 
  -5  -5  -6    0.14    0.18 
   7  -6  -6    0.45    0.22 
   6  -6  -6    0.19    0.18 
   5  -6  -6    1.83    0.32 
   4  -6  -6    2.90    0.35 
   3  -6  -6    1.51    0.24 
   3  -6  -6    1.90    0.29 
   2  -6  -6    5.48    0.37 
   2  -6  -6    6.36    0.41 
   1  -6  -6    1.45    0.24 
   1  -6  -6    1.38    0.23 
   0  -6  -6    0.36    0.16 
  -1  -6  -6    0.68    0.21 
  -2  -6  -6    0.01    0.15 
  -3  -6  -6    0.02    0.17 
   6  -7  -6    4.17    0.48 
   5  -7  -6    1.36    0.31 
   4  -7  -6    1.02    0.27 
   3  -7  -6    2.56    0.33 
   2  -7  -6   -0.03    0.15 
   1  -7  -6    0.76    0.21 
   0  -7  -6    0.19    0.17 
  -1  -7  -6    0.23    0.19 
  -2  -7  -6    0.07    0.19 
   4  -8  -6    0.26    0.22 
   3  -8  -6    0.58    0.24 
   0  -9   7   -0.28    0.22 
   1  -9   7   -0.04    0.21 
   2  -9   7    1.14    0.34 
   3  -9   7    0.31    0.24 
   4  -9   7    0.80    0.28 
   4  -9   7    1.08    0.26 
  -2  -8   7    0.74    0.30 
  -1  -8   7    0.64    0.30 
   0  -8   7    3.07    0.46 
   1  -8   7    0.32    0.22 
   2  -8   7   -0.01    0.19 
   3  -8   7    0.12    0.15 
   3  -8   7    0.08    0.20 
   4  -8   7    1.06    0.28 
   4  -8   7    1.25    0.24 
   5  -8   7    0.24    0.16 
  -4  -7   7    0.24    0.24 
  -3  -7   7   -0.03    0.22 
  -2  -7   7    0.18    0.23 
  -1  -7   7    0.88    0.28 
   0  -7   7    1.46    0.31 
   1  -7   7    0.67    0.24 
   2  -7   7    0.48    0.20 
   2  -7   7    0.78    0.18 
   3  -7   7    0.12    0.15 
   3  -7   7   -0.07    0.11 
   4  -7   7    1.01    0.22 
   4  -7   7    0.89    0.23 
   5  -7   7    0.03    0.14 
   6  -7   7    0.29    0.18 
   5   6  -7    0.31    0.20 
  -5  -6   7    0.28    0.23 
   4   6  -7    0.41    0.19 
  -4  -6   7    0.56    0.24 
   3   6  -7    0.07    0.14 
  -3  -6   7    0.07    0.19 
   2   6  -7    1.78    0.24 
  -2  -6   7    1.69    0.33 
  -1  -6   7    1.34    0.29 
   0  -6   7    0.03    0.13 
   1  -6   7    0.34    0.13 
   1  -6   7    0.25    0.15 
   2  -6   7    2.13    0.24 
   2  -6   7    2.01    0.29 
   3  -6   7    0.68    0.18 
   3  -6   7    0.80    0.17 
   4  -6   7    0.59    0.17 
   4  -6   7    0.87    0.20 
   5  -6   7    1.39    0.25 
   6  -6   7    0.10    0.15 
   7  -6   7    0.12    0.17 
   6   5  -7    0.70    0.24 
   5   5  -7   -0.34    0.13 
  -5  -5   7    0.11    0.21 
   4   5  -7    0.29    0.16 
  -4  -5   7    0.21    0.22 
   3   5  -7    1.09    0.21 
  -3  -5   7    0.64    0.23 
   2   5  -7    2.75    0.26 
  -2  -5   7    2.52    0.34 
   1   5  -7    0.73    0.14 
  -1  -5   7    0.64    0.20 
   0   5  -7    0.77    0.13 
   0  -5   7    0.44    0.17 
   0  -5   7    0.74    0.14 
   1  -5   7    0.17    0.10 
   1  -5   7    0.28    0.13 
   2  -5   7    0.11    0.10 
   2  -5   7    0.18    0.13 
   3  -5   7    0.14    0.10 
   3  -5   7    0.23    0.12 
   4  -5   7    0.23    0.12 
   5  -5   7    0.51    0.15 
   6  -5   7    0.02    0.14 
   7  -5   7    0.28    0.18 
   6   4  -7    0.32    0.19 
   5   4  -7    0.70    0.20 
  -5  -4   7    0.51    0.22 
   4   4  -7    0.76    0.20 
  -4  -4   7    0.62    0.24 
   3   4  -7    0.79    0.18 
  -3  -4   7    1.09    0.26 
   2   4  -7    1.75    0.21 
  -2  -4   7    2.10    0.30 
   1   4  -7    0.62    0.12 
  -1  -4   7    0.81    0.19 
   0   4  -7    0.83    0.13 
   0  -4   7    0.98    0.14 
   0  -4   7    0.94    0.18 
  -1   4  -7    0.83    0.12 
   1  -4   7    0.59    0.13 
  -2   4  -7    4.67    0.24 
   2  -4   7    5.00    0.31 
   2  -4   7    4.40    0.28 
   3  -4   7    1.13    0.17 
   3  -4   7    1.16    0.19 
   4  -4   7    0.99    0.18 
   5  -4   7    0.15    0.14 
   6  -4   7    0.97    0.22 
   7  -4   7    0.22    0.18 
   7   3  -7   -0.07    0.16 
   6   3  -7    0.79    0.22 
   5   3  -7    3.50    0.37 
   4   3  -7    0.24    0.13 
  -4  -3   7    0.26    0.18 
   3   3  -7    5.61    0.35 
  -3  -3   7    5.44    0.43 
   2   3  -7    0.15    0.09 
  -2  -3   7    0.05    0.11 
   1   3  -7    0.48    0.11 
  -1  -3   7    0.67    0.16 
  -1  -3   7    0.48    0.11 
   0   3  -7    0.60    0.12 
   0  -3   7    0.79    0.15 
   0  -3   7    0.56    0.11 
  -1   3  -7    0.82    0.12 
   1  -3   7    1.16    0.16 
   1  -3   7    1.27    0.17 
  -2   3  -7    0.06    0.05 
   2  -3   7    0.36    0.11 
   2  -3   7    0.66    0.13 
  -3   3  -7    0.17    0.08 
   3  -3   7    0.27    0.10 
  -4   3  -7   10.02    0.45 
   4  -3   7   11.84    0.52 
   5  -3   7    0.02    0.11 
   6  -3   7    6.66    0.45 
   7  -3   7    0.13    0.15 
   8  -3   7    0.22    0.19 
   7   2  -7    1.82    0.35 
   6   2  -7    1.08    0.25 
   5   2  -7    0.27    0.14 
   4   2  -7    0.56    0.15 
   3   2  -7   -0.09    0.07 
   2   2  -7    0.59    0.13 
  -2  -2   7    0.66    0.17 
   1   2  -7    0.25    0.09 
  -1  -2   7    0.27    0.11 
  -1  -2   7    0.15    0.07 
   0   2  -7   36.71    0.96 
   0  -2   7   36.35    1.03 
   0  -2   7   35.99    0.92 
  -1   2  -7    1.87    0.17 
   1  -2   7    1.41    0.18 
   1  -2   7    1.91    0.17 
  -2   2  -7   36.98    0.97 
   2  -2   7   36.63    0.97 
   2  -2   7   37.28    0.94 
  -3   2  -7    0.15    0.08 
   3  -2   7    0.02    0.08 
  -4   2  -7    0.82    0.17 
   4  -2   7    0.76    0.17 
  -5   2  -7    1.86    0.25 
   5  -2   7    2.01    0.27 
  -6   2  -7    2.23    0.30 
   6  -2   7    2.07    0.29 
   7  -2   7    1.24    0.26 
   8   1  -7    0.41    0.24 
   7   1  -7    0.59    0.24 
   6   1  -7    1.82    0.30 
   5   1  -7    1.40    0.24 
   4   1  -7    0.10    0.10 
   3   1  -7    1.80    0.21 
   2   1  -7   14.90    0.55 
   1   1  -7    1.60    0.18 
  -1  -1   7    1.62    0.17 
   0   1  -7    6.00    0.30 
   0  -1   7    5.62    0.29 
  -1   1  -7   14.55    0.51 
   1  -1   7   14.36    0.51 
  -2   1  -7    2.26    0.21 
   2  -1   7    2.06    0.22 
  -3   1  -7    9.97    0.45 
   3  -1   7    9.93    0.44 
  -4   1  -7    3.50    0.31 
   4  -1   7    3.32    0.29 
  -5   1  -7    0.44    0.17 
   5  -1   7    0.56    0.18 
  -6   1  -7    0.73    0.21 
   6  -1   7    0.40    0.17 
  -7   1  -7    0.29    0.20 
   7  -1   7    0.40    0.20 
   8   0  -7    0.80    0.28 
   7   0  -7    0.20    0.20 
   6   0  -7    0.04    0.16 
   5   0  -7    0.11    0.12 
   4   0  -7    0.13    0.10 
   3   0  -7    0.61    0.15 
   2   0  -7    4.63    0.29 
   1   0  -7   12.05    0.47 
   0   0  -7   10.37    0.42 
   0   0   7    9.96    0.42 
  -1   0  -7   17.30    0.60 
   1   0   7   17.59    0.59 
  -2   0  -7    2.33    0.23 
   2   0   7    2.22    0.23 
  -3   0  -7    0.69    0.15 
   3   0   7    0.61    0.15 
  -4   0  -7    0.57    0.17 
   4   0   7    0.35    0.13 
  -5   0  -7    0.85    0.21 
   5   0   7    1.18    0.21 
  -6   0  -7    0.01    0.16 
   6   0   7   -0.03    0.13 
  -7   0  -7    1.32    0.30 
   8  -1  -7    2.25    0.39 
   7  -1  -7    0.29    0.22 
   6  -1  -7    9.72    0.53 
   5  -1  -7    5.07    0.35 
   4  -1  -7    4.85    0.32 
   3  -1  -7   14.05    0.55 
   2  -1  -7    2.76    0.25 
   1  -1  -7    4.32    0.27 
   0  -1  -7    0.87    0.16 
  -1  -1  -7    4.69    0.29 
   1   1   7    4.91    0.31 
  -2  -1  -7    0.77    0.16 
   2   1   7    0.98    0.18 
  -3  -1  -7    6.18    0.39 
   3   1   7    6.46    0.37 
  -4  -1  -7   -0.02    0.10 
   4   1   7   -0.12    0.09 
  -5  -1  -7    1.10    0.25 
   5   1   7    1.00    0.20 
  -6  -1  -7    0.80    0.23 
  -7  -1  -7    0.33    0.22 
   8  -2  -7    2.66    0.39 
   7  -2  -7    0.32    0.20 
   6  -2  -7    0.35    0.16 
   5  -2  -7    0.21    0.13 
   4  -2  -7    0.10    0.10 
   3  -2  -7    0.11    0.10 
   2  -2  -7    5.39    0.33 
   1  -2  -7    0.15    0.09 
   1  -2  -7    0.14    0.08 
   0  -2  -7    0.04    0.06 
   0  -2  -7    0.03    0.07 
  -1  -2  -7    0.01    0.07 
  -2  -2  -7    3.78    0.32 
  -3  -2  -7    0.47    0.15 
   3   2   7    0.53    0.16 
  -4  -2  -7    1.53    0.27 
   4   2   7    1.12    0.21 
  -5  -2  -7    0.67    0.21 
   5   2   7    0.73    0.20 
  -6  -2  -7   -0.02    0.17 
   8  -3  -7    0.18    0.21 
   7  -3  -7    1.51    0.28 
   6  -3  -7   -0.09    0.12 
   5  -3  -7    0.14    0.14 
   4  -3  -7    0.34    0.13 
   3  -3  -7    1.86    0.23 
   3  -3  -7    2.25    0.25 
   2  -3  -7    3.95    0.27 
   2  -3  -7    3.98    0.29 
   1  -3  -7    0.04    0.07 
   1  -3  -7    0.24    0.11 
   0  -3  -7    0.15    0.10 
  -1  -3  -7    2.46    0.27 
  -2  -3  -7    4.03    0.36 
  -3  -3  -7    2.40    0.33 
  -4  -3  -7    0.74    0.20 
  -5  -3  -7    0.17    0.17 
  -6  -3  -7    0.90    0.26 
   7  -4  -7    0.08    0.19 
   7  -4  -7    0.20    0.17 
   6  -4  -7    0.02    0.13 
   6  -4  -7   -0.09    0.13 
   5  -4  -7    0.74    0.19 
   5  -4  -7    1.27    0.24 
   4  -4  -7    1.00    0.20 
   4  -4  -7    1.01    0.21 
   3  -4  -7    6.88    0.41 
   3  -4  -7    7.11    0.40 
   2  -4  -7    0.20    0.11 
   2  -4  -7    0.14    0.11 
   1  -4  -7    6.29    0.39 
   0  -4  -7    0.38    0.14 
  -1  -4  -7    0.06    0.10 
  -2  -4  -7    1.32    0.24 
  -3  -4  -7    1.48    0.27 
  -4  -4  -7    1.80    0.34 
  -5  -4  -7    1.15    0.30 
   7  -5  -7    1.01    0.26 
   6  -5  -7    0.08    0.15 
   6  -5  -7   -0.15    0.15 
   5  -5  -7    0.71    0.21 
   5  -5  -7    1.02    0.22 
   4  -5  -7    1.03    0.23 
   4  -5  -7    1.09    0.21 
   3  -5  -7    0.45    0.16 
   3  -5  -7    0.75    0.20 
   2  -5  -7    0.13    0.11 
   2  -5  -7   -0.08    0.12 
   1  -5  -7    0.07    0.09 
   0  -5  -7    0.63    0.18 
  -1  -5  -7    0.35    0.16 
  -2  -5  -7    0.00    0.13 
  -3  -5  -7    0.26    0.19 
  -4  -5  -7    0.04    0.20 
   6  -6  -7    0.64    0.25 
   5  -6  -7    0.00    0.17 
   4  -6  -7    1.56    0.29 
   4  -6  -7    1.58    0.27 
   3  -6  -7    1.11    0.24 
   3  -6  -7    0.64    0.19 
   2  -6  -7    0.11    0.14 
   2  -6  -7    0.20    0.16 
   1  -6  -7    1.41    0.26 
   0  -6  -7    2.70    0.35 
  -1  -6  -7    0.23    0.18 
  -2  -6  -7    0.62    0.22 
  -3  -6  -7    0.70    0.28 
   5  -7  -7   -0.08    0.19 
   4  -7  -7    3.71    0.44 
   3  -7  -7    0.53    0.21 
   1  -7  -7    1.22    0.27 
   0  -7  -7    0.22    0.22 
  -1  -7  -7    0.47    0.23 
   1  -9   8    1.90    0.39 
   2  -9   8    0.63    0.28 
  -2  -8   8    0.05    0.22 
  -1  -8   8    5.65    0.60 
   0  -8   8    0.16    0.23 
   1  -8   8    5.27    0.53 
   2  -8   8    1.12    0.30 
   3  -8   8    1.18    0.31 
   3  -8   8    0.84    0.21 
   4  -8   8    0.35    0.18 
   5  -8   8   -0.06    0.16 
  -3  -7   8    6.11    0.64 
  -2  -7   8    1.89    0.39 
  -1  -7   8    3.76    0.47 
   0  -7   8    3.10    0.41 
   1  -7   8   -0.06    0.15 
   2  -7   8    0.05    0.12 
   2  -7   8    0.09    0.17 
   3  -7   8    0.22    0.14 
   3  -7   8    0.36    0.20 
   4  -7   8    0.09    0.14 
   5  -7   8    0.04    0.13 
   6  -7   8    0.49    0.20 
   4   6  -8    3.62    0.39 
  -4  -6   8    3.69    0.55 
   3   6  -8    1.88    0.28 
  -3  -6   8    1.69    0.39 
  -2  -6   8   -0.03    0.19 
  -1  -6   8   -0.03    0.15 
   0  -6   8    1.49    0.29 
   1  -6   8    1.71    0.29 
   1  -6   8    1.50    0.21 
   2  -6   8    0.41    0.18 
   2  -6   8    0.31    0.13 
   3  -6   8    3.02    0.33 
   3  -6   8    2.57    0.29 
   4  -6   8    5.12    0.40 
   5  -6   8    2.13    0.30 
   6  -6   8    2.01    0.30 
   5   5  -8   -0.02    0.16 
  -5  -5   8   -0.09    0.26 
   4   5  -8   -0.07    0.12 
  -4  -5   8    0.06    0.23 
   3   5  -8   -0.07    0.12 
  -3  -5   8    0.21    0.20 
   2   5  -8    0.82    0.17 
  -2  -5   8    1.26    0.29 
   1   5  -8    0.66    0.15 
  -1  -5   8    0.49    0.18 
   0  -5   8   10.22    0.56 
   0  -5   8    9.70    0.42 
   1  -5   8    5.05    0.31 
   1  -5   8    5.52    0.39 
   2  -5   8    8.49    0.44 
   2  -5   8    8.33    0.46 
   3  -5   8    8.04    0.43 
   4  -5   8    1.93    0.27 
   5  -5   8    3.75    0.37 
   6  -5   8    0.04    0.17 
   7  -5   8    0.19    0.17 
   6   4  -8    0.12    0.19 
   5   4  -8    0.00    0.13 
   4   4  -8    1.20    0.23 
  -4  -4   8    1.33    0.34 
   3   4  -8    3.72    0.32 
  -3  -4   8    3.70    0.44 
   2   4  -8    5.88    0.36 
  -2  -4   8    5.40    0.47 
   1   4  -8   19.11    0.65 
  -1  -4   8   19.10    0.79 
  -1  -4   8   18.77    0.60 
   0   4  -8    6.47    0.33 
   0  -4   8    6.51    0.33 
   0  -4   8    6.55    0.41 
   1  -4   8   18.91    0.72 
   1  -4   8   19.91    0.65 
   2  -4   8    8.21    0.42 
   2  -4   8    8.59    0.42 
   3  -4   8    3.49    0.32 
   4  -4   8    0.42    0.15 
   5  -4   8    0.33    0.17 
   6  -4   8    1.31    0.28 
   7  -4   8    1.33    0.29 
   6   3  -8    1.66    0.30 
   5   3  -8    1.95    0.31 
   4   3  -8    3.48    0.33 
   3   3  -8    5.02    0.34 
  -3  -3   8    5.38    0.47 
   2   3  -8    5.21    0.32 
  -2  -3   8    5.04    0.40 
   1   3  -8    8.11    0.38 
  -1  -3   8    7.64    0.35 
  -1  -3   8    7.12    0.44 
   0   3  -8    5.70    0.31 
   0  -3   8    5.16    0.30 
   0  -3   8    5.31    0.34 
  -1   3  -8    5.33    0.29 
   1  -3   8    5.90    0.32 
   1  -3   8    6.01    0.33 
  -2   3  -8    0.33    0.10 
   2  -3   8    0.24    0.11 
  -3   3  -8    0.28    0.10 
   3  -3   8    0.18    0.10 
   4  -3   8    0.17    0.14 
   5  -3   8    5.19    0.42 
   6  -3   8    1.89    0.31 
   7  -3   8    3.59    0.41 
   7   2  -8    1.53    0.30 
   6   2  -8    0.44    0.19 
   5   2  -8    3.85    0.37 
   4   2  -8    6.42    0.41 
   3   2  -8    5.99    0.36 
   2   2  -8    7.81    0.39 
   1   2  -8    1.08    0.17 
  -1  -2   8    1.38    0.18 
   0   2  -8    3.33    0.24 
   0  -2   8    3.49    0.26 
   0  -2   8    3.55    0.27 
  -1   2  -8    9.78    0.42 
   1  -2   8    9.45    0.42 
   1  -2   8    9.97    0.40 
  -2   2  -8   12.03    0.48 
   2  -2   8   11.80    0.50 
  -3   2  -8   21.20    0.71 
   3  -2   8   20.74    0.72 
  -4   2  -8   21.97    0.78 
   4  -2   8   22.24    0.78 
  -5   2  -8    6.66    0.43 
   5  -2   8    6.38    0.43 
   6  -2   8    7.12    0.47 
   7  -2   8    0.31    0.19 
   7   1  -8    0.25    0.23 
   6   1  -8    0.83    0.25 
   5   1  -8    0.34    0.16 
   4   1  -8    2.47    0.28 
   3   1  -8    0.20    0.11 
   2   1  -8   30.63    0.92 
   1   1  -8    7.72    0.38 
   0   1  -8  128.09    2.77 
   0  -1   8  122.38    2.58 
  -1   1  -8   14.18    0.54 
   1  -1   8   14.71    0.56 
  -2   1  -8   71.35    1.74 
   2  -1   8   71.44    1.66 
  -3   1  -8    5.22    0.34 
   3  -1   8    5.18    0.34 
  -4   1  -8    4.46    0.36 
   4  -1   8    4.51    0.35 
   4  -1   8    4.51    0.35 
  -5   1  -8    0.30    0.14 
   5  -1   8    0.38    0.16 
  -6   1  -8    0.00    0.16 
   6  -1   8    0.45    0.18 
  -7   1  -8    0.03    0.22 
   7  -1   8   -0.17    0.16 
   7   0  -8   -0.15    0.18 
   6   0  -8   13.70    0.68 
   5   0  -8    4.74    0.39 
   4   0  -8   89.20    2.18 
   3   0  -8   18.28    0.67 
   2   0  -8  114.72    2.60 
   1   0  -8   12.43    0.52 
   0   0  -8   15.88    0.59 
   0   0   8   14.87    0.57 
  -1   0  -8   -0.03    0.07 
   1   0   8   -0.07    0.08 
  -2   0  -8    1.08    0.19 
   2   0   8    0.91    0.19 
  -3   0  -8    0.53    0.16 
   3   0   8    0.62    0.17 
  -4   0  -8    2.21    0.30 
   4   0   8    1.79    0.25 
  -5   0  -8    0.03    0.13 
   5   0   8   -0.07    0.12 
  -6   0  -8    1.21    0.29 
   6   0   8    0.63    0.22 
  -7   0  -8    0.30    0.21 
   7  -1  -8    1.20    0.29 
   6  -1  -8   34.98    1.17 
   5  -1  -8    0.64    0.19 
   4  -1  -8   40.55    1.19 
   3  -1  -8    0.15    0.12 
   2  -1  -8   12.09    0.53 
   1  -1  -8    0.19    0.11 
   0  -1  -8   -0.05    0.07 
  -1  -1  -8    1.52    0.22 
   1   1   8    1.58    0.23 
  -2  -1  -8    3.58    0.32 
   2   1   8    3.45    0.30 
  -3  -1  -8    4.30    0.37 
   3   1   8    4.31    0.34 
  -4  -1  -8    4.10    0.40 
   4   1   8    5.07    0.38 
  -5  -1  -8    2.87    0.36 
   5   1   8    2.82    0.32 
  -6  -1  -8    0.32    0.22 
   7  -2  -8    0.15    0.20 
   6  -2  -8    6.02    0.43 
   5  -2  -8    0.46    0.16 
   4  -2  -8    0.90    0.20 
   3  -2  -8    0.04    0.10 
   2  -2  -8    2.30    0.25 
   1  -2  -8    0.70    0.17 
   1  -2  -8    0.72    0.13 
   0  -2  -8    7.94    0.43 
  -1  -2  -8    5.47    0.36 
  -2  -2  -8    1.51    0.24 
  -3  -2  -8    4.79    0.41 
   3   2   8    5.93    0.37 
  -4  -2  -8    0.73    0.22 
   4   2   8    0.80    0.21 
  -5  -2  -8    1.30    0.28 
   5   2   8    1.62    0.28 
  -6  -2  -8    0.16    0.21 
   7  -3  -8    0.04    0.17 
   6  -3  -8    2.30    0.33 
   5  -3  -8    1.40    0.25 
   4  -3  -8    0.24    0.14 
   3  -3  -8   14.76    0.62 
   3  -3  -8   14.88    0.62 
   2  -3  -8    5.22    0.36 
   2  -3  -8    5.78    0.34 
   1  -3  -8   22.96    0.82 
   0  -3  -8    0.58    0.16 
  -1  -3  -8    4.85    0.39 
  -2  -3  -8   -0.09    0.10 
  -3  -3  -8    0.31    0.17 
  -4  -3  -8    0.10    0.15 
  -5  -3  -8    0.01    0.16 
   7  -4  -8    2.23    0.35 
   7  -4  -8    3.05    0.42 
   6  -4  -8    0.70    0.22 
   6  -4  -8    0.46    0.21 
   5  -4  -8    7.49    0.48 
   5  -4  -8    7.82    0.51 
   4  -4  -8    0.02    0.12 
   4  -4  -8   -0.02    0.12 
   3  -4  -8    6.58    0.42 
   3  -4  -8    6.62    0.42 
   2  -4  -8    2.39    0.26 
   2  -4  -8    1.88    0.27 
   1  -4  -8    1.25    0.23 
   0  -4  -8    0.16    0.12 
  -1  -4  -8    0.17    0.14 
  -2  -4  -8    1.41    0.27 
  -3  -4  -8   -0.02    0.15 
  -4  -4  -8    0.11    0.19 
   6  -5  -8    0.44    0.23 
   6  -5  -8    0.53    0.21 
   5  -5  -8    3.39    0.37 
   5  -5  -8    3.66    0.39 
   4  -5  -8    0.82    0.22 
   4  -5  -8    0.79    0.22 
   3  -5  -8    0.02    0.15 
   3  -5  -8    0.00    0.13 
   2  -5  -8    4.14    0.38 
   1  -5  -8    1.34    0.24 
   0  -5  -8    0.19    0.15 
  -1  -5  -8    0.16    0.16 
  -2  -5  -8    8.88    0.59 
  -3  -5  -8    0.22    0.19 
   5  -6  -8    0.18    0.20 
   4  -6  -8    0.49    0.21 
   4  -6  -8    0.27    0.19 
   3  -6  -8   -0.16    0.14 
   3  -6  -8   -0.07    0.20 
   2  -6  -8    4.62    0.42 
   1  -6  -8    0.57    0.21 
   0  -6  -8    5.57    0.49 
  -1  -6  -8    0.44    0.22 
  -2  -6  -8    2.15    0.38 
   4  -7  -8    2.45    0.41 
   2  -7  -8    2.64    0.37 
   1  -7  -8   -0.06    0.19 
   0  -7  -8    3.38    0.44 
  -1  -8   9    1.40    0.36 
   0  -8   9    3.46    0.51 
   1  -8   9    3.01    0.46 
   2  -8   9    2.55    0.41 
   3  -8   9    2.02    0.31 
   4  -8   9    0.30    0.19 
  -3  -7   9    1.30    0.37 
  -2  -7   9    4.42    0.55 
  -1  -7   9    2.12    0.41 
   0  -7   9    0.43    0.25 
   1  -7   9    1.04    0.28 
   2  -7   9    0.45    0.18 
   2  -7   9    0.29    0.21 
   3  -7   9    0.26    0.17 
   4  -7   9    0.53    0.20 
   5  -7   9    0.15    0.17 
   4   6  -9    1.22    0.27 
  -4  -6   9    1.00    0.35 
   3   6  -9    0.08    0.19 
  -3  -6   9   -0.10    0.25 
  -2  -6   9    0.06    0.22 
  -1  -6   9    0.88    0.26 
   0  -6   9    0.61    0.25 
   1  -6   9    0.65    0.23 
   1  -6   9    0.59    0.16 
   2  -6   9    3.80    0.33 
   2  -6   9    3.81    0.40 
   3  -6   9    1.53    0.25 
   4  -6   9    1.97    0.28 
   5  -6   9    4.45    0.42 
   6  -6   9    0.58    0.21 
   5   5  -9    0.11    0.18 
   4   5  -9   -0.15    0.12 
  -4  -5   9    0.02    0.23 
   3   5  -9    0.28    0.15 
  -3  -5   9    0.31    0.24 
   2   5  -9    1.49    0.23 
  -2  -5   9    1.68    0.34 
   1   5  -9    0.65    0.17 
  -1  -5   9    0.65    0.23 
   0  -5   9    1.91    0.22 
   0  -5   9    1.71    0.30 
   1  -5   9    6.62    0.45 
   1  -5   9    6.90    0.39 
   2  -5   9    0.42    0.15 
   3  -5   9    5.88    0.40 
   4  -5   9    0.62    0.19 
   5  -5   9    0.41    0.17 
   6  -5   9    0.52    0.23 
   5   4  -9    0.22    0.17 
   4   4  -9    1.75    0.28 
  -4  -4   9    2.27    0.44 
   3   4  -9    1.36    0.24 
  -3  -4   9    0.94    0.29 
   2   4  -9    0.45    0.14 
  -2  -4   9    0.32    0.19 
   1   4  -9    1.44    0.20 
  -1  -4   9    1.05    0.26 
  -1  -4   9    0.97    0.17 
   0   4  -9    2.30    0.23 
   0  -4   9    2.50    0.24 
   0  -4   9    2.49    0.30 
  -1   4  -9    0.05    0.09 
   1  -4   9    0.03    0.10 
   1  -4   9    0.16    0.14 
   2  -4   9    0.05    0.08 
   3  -4   9   -0.14    0.08 
   4  -4   9    2.17    0.28 
   5  -4   9    0.23    0.18 
   6  -4   9    6.07    0.51 
   6   3  -9    0.75    0.25 
   5   3  -9    2.55    0.34 
   4   3  -9    2.85    0.32 
   3   3  -9    0.20    0.13 
   2   3  -9    0.80    0.17 
  -2  -3   9    1.08    0.25 
   1   3  -9    1.09    0.19 
  -1  -3   9    1.49    0.26 
  -1  -3   9    1.71    0.20 
   0   3  -9    1.19    0.19 
   0  -3   9    1.48    0.22 
   0  -3   9    1.09    0.18 
  -1   3  -9    3.69    0.27 
   1  -3   9    3.78    0.31 
  -2   3  -9   11.97    0.50 
   2  -3   9   12.60    0.54 
  -3   3  -9    2.93    0.27 
   3  -3   9    3.09    0.31 
   4  -3   9   31.74    1.03 
   5  -3   9    1.25    0.27 
   6  -3   9   20.61    0.86 
   6   2  -9    2.23    0.34 
   5   2  -9    0.72    0.20 
   4   2  -9    2.22    0.29 
   3   2  -9    2.92    0.29 
   2   2  -9   -0.03    0.09 
   1   2  -9    2.77    0.26 
  -1  -2   9    3.28    0.28 
   0   2  -9   39.02    1.09 
   0  -2   9   37.86    1.05 
  -1   2  -9    1.27    0.19 
   1  -2   9    1.21    0.20 
  -2   2  -9  116.52    2.60 
   2  -2   9  113.46    2.49 
  -3   2  -9    0.50    0.15 
   3  -2   9    0.74    0.21 
  -4   2  -9   54.04    1.49 
   4  -2   9   55.18    1.47 
  -5   2  -9    0.75    0.21 
   5  -2   9    0.50    0.20 
   6  -2   9    4.84    0.44 
   7   1  -9   -0.01    0.18 
   6   1  -9   -0.01    0.19 
   5   1  -9    1.42    0.25 
   4   1  -9    8.67    0.48 
   3   1  -9    6.48    0.39 
   2   1  -9   79.14    1.95 
   1   1  -9    4.31    0.31 
   0   1  -9  106.83    2.43 
   0  -1   9  103.57    2.29 
  -1   1  -9    0.13    0.10 
   1  -1   9    0.00    0.09 
  -2   1  -9   23.59    0.80 
   2  -1   9   23.02    0.80 
  -3   1  -9    0.03    0.10 
   3  -1   9    0.07    0.11 
  -4   1  -9    1.86    0.27 
   4  -1   9    1.14    0.24 
  -5   1  -9    0.55    0.19 
   5  -1   9    0.06    0.15 
  -6   1  -9    0.09    0.17 
   6  -1   9    0.09    0.16 
   7   0  -9    2.09    0.35 
   6   0  -9    9.32    0.59 
   5   0  -9    0.24    0.17 
   4   0  -9   36.28    1.13 
   3   0  -9    2.61    0.29 
   2   0  -9   37.07    1.11 
   1   0  -9    2.60    0.27 
   0   0  -9   10.81    0.50 
  -1   0  -9    0.18    0.11 
   1   0   9    0.08    0.12 
  -2   0  -9    3.00    0.29 
   2   0   9    3.94    0.35 
  -3   0  -9    3.86    0.35 
   3   0   9    3.65    0.35 
  -4   0  -9    0.83    0.22 
   4   0   9    0.51    0.17 
  -5   0  -9    2.79    0.36 
   5   0   9    2.55    0.33 
  -6   0  -9    0.14    0.19 
   6   0   9    0.33    0.21 
   7  -1  -9    0.20    0.23 
   6  -1  -9    5.58    0.47 
   5  -1  -9    1.48    0.27 
   4  -1  -9    0.21    0.15 
   3  -1  -9    0.30    0.15 
   2  -1  -9   -0.04    0.10 
   1  -1  -9    0.20    0.12 
   0  -1  -9    2.67    0.28 
  -1  -1  -9    3.13    0.31 
  -2  -1  -9    2.00    0.28 
   2   1   9    2.04    0.28 
  -3  -1  -9    5.23    0.42 
   3   1   9    4.70    0.38 
  -4  -1  -9   -0.09    0.13 
   4   1   9   -0.05    0.13 
  -5  -1  -9    3.43    0.41 
   5   1   9    3.72    0.38 
  -6  -1  -9    0.20    0.20 
   7  -2  -9    2.35    0.37 
   6  -2  -9    0.03    0.17 
   5  -2  -9    0.10    0.16 
   4  -2  -9    2.46    0.31 
   3  -2  -9    5.86    0.40 
   2  -2  -9    3.72    0.34 
   1  -2  -9   16.68    0.68 
   0  -2  -9    0.04    0.11 
  -1  -2  -9   10.72    0.54 
  -2  -2  -9   -0.01    0.09 
  -3  -2  -9    3.93    0.40 
  -4  -2  -9    0.28    0.18 
   4   2   9    0.31    0.17 
  -5  -2  -9    0.76    0.25 
   5   2   9    0.79    0.25 
   7  -3  -9    0.60    0.26 
   6  -3  -9    0.11    0.19 
   5  -3  -9    2.44    0.33 
   4  -3  -9    0.26    0.16 
   4  -3  -9    0.10    0.16 
   3  -3  -9    5.06    0.36 
   3  -3  -9    4.62    0.39 
   2  -3  -9    3.28    0.34 
   1  -3  -9    4.51    0.39 
   0  -3  -9    2.79    0.33 
  -1  -3  -9    3.31    0.37 
  -2  -3  -9    0.27    0.16 
  -3  -3  -9    1.56    0.29 
  -4  -3  -9    0.60    0.21 
   6  -4  -9    1.66    0.32 
   6  -4  -9    1.51    0.31 
   5  -4  -9    5.78    0.45 
   5  -4  -9    5.29    0.45 
   4  -4  -9    1.98    0.31 
   4  -4  -9    1.88    0.29 
   3  -4  -9    2.95    0.34 
   3  -4  -9    3.42    0.33 
   2  -4  -9    0.73    0.21 
   1  -4  -9    0.34    0.17 
   0  -4  -9    3.18    0.37 
  -1  -4  -9    0.03    0.14 
  -2  -4  -9    0.23    0.18 
  -3  -4  -9   -0.04    0.18 
   5  -5  -9    0.32    0.19 
   5  -5  -9    0.16    0.18 
   4  -5  -9    0.01    0.17 
   4  -5  -9    0.07    0.16 
   3  -5  -9    0.00    0.15 
   2  -5  -9    0.36    0.19 
   1  -5  -9    0.20    0.16 
   0  -5  -9    5.21    0.46 
  -1  -5  -9   -0.09    0.16 
  -2  -5  -9    3.56    0.46 
   4  -6  -9    1.52    0.31 
   3  -6  -9    0.28    0.20 
   2  -6  -9    3.81    0.42 
   1  -6  -9    1.19    0.29 
   0  -6  -9    0.34    0.21 
  -1  -6  -9    1.22    0.29 
   1  -8  10    0.06    0.25 
  -2  -7  10    0.18    0.26 
  -1  -7  10    0.91    0.33 
   0  -7  10    0.11    0.24 
   1  -7  10    0.54    0.27 
   2  -7  10    0.12    0.17 
   3  -7  10   -0.07    0.15 
   4  -7  10    0.13    0.20 
  -3  -6  10    0.43    0.31 
  -2  -6  10    0.19    0.25 
  -1  -6  10    1.95    0.38 
   0  -6  10    0.33    0.23 
   1  -6  10    2.66    0.30 
   1  -6  10    2.97    0.39 
   2  -6  10    0.38    0.17 
   3  -6  10    0.97    0.23 
   4  -6  10    0.09    0.16 
   5  -6  10    0.06    0.16 
   4   5 -10    1.39    0.29 
  -4  -5  10    0.77    0.34 
   3   5 -10    2.74    0.33 
  -3  -5  10    2.59    0.46 
   2   5 -10    0.87    0.21 
  -2  -5  10    1.36    0.34 
  -1  -5  10    2.93    0.41 
   0  -5  10    1.04    0.19 
   0  -5  10    1.23    0.28 
   1  -5  10    0.39    0.15 
   2  -5  10    3.44    0.34 
   3  -5  10    0.73    0.20 
   4  -5  10    0.11    0.14 
   5  -5  10   -0.05    0.14 
   5   4 -10    2.70    0.36 
   4   4 -10    0.43    0.18 
   3   4 -10    4.32    0.38 
  -3  -4  10    4.49    0.51 
   2   4 -10    3.13    0.30 
  -2  -4  10    3.22    0.43 
   1   4 -10    0.17    0.12 
  -1  -4  10    0.21    0.19 
  -1  -4  10   -0.04    0.10 
   0   4 -10    1.19    0.20 
   0  -4  10    0.86    0.24 
   0  -4  10    0.94    0.19 
  -1   4 -10    2.09    0.24 
   1  -4  10    2.29    0.27 
   2  -4  10   -0.07    0.11 
   3  -4  10    1.38    0.25 
   4  -4  10    0.53    0.18 
   5  -4  10    0.14    0.19 
   6  -4  10    2.17    0.35 
   5   3 -10    0.38    0.16 
   4   3 -10    1.78    0.28 
   3   3 -10    0.88    0.20 
   2   3 -10    1.38    0.22 
   1   3 -10    0.87    0.18 
  -1  -3  10    1.29    0.21 
  -1  -3  10    1.00    0.24 
   0   3 -10    1.00    0.19 
   0  -3  10    1.33    0.22 
  -1   3 -10    0.20    0.12 
   1  -3  10    0.05    0.09 
  -2   3 -10    0.68    0.17 
   2  -3  10    0.83    0.19 
  -3   3 -10    0.20    0.15 
   3  -3  10    0.22    0.13 
   4  -3  10    5.28    0.44 
   5  -3  10    0.52    0.23 
   6  -3  10    5.00    0.47 
   6   2 -10    0.19    0.17 
   5   2 -10   -0.20    0.11 
   4   2 -10    0.07    0.13 
   3   2 -10    0.17    0.12 
   2   2 -10    0.82    0.19 
   1   2 -10    1.46    0.23 
   0   2 -10    3.96    0.33 
   0  -2  10    3.78    0.33 
  -1   2 -10    2.07    0.25 
   1  -2  10    1.53    0.24 
  -2   2 -10    2.45    0.27 
   2  -2  10    2.80    0.31 
  -3   2 -10    0.62    0.18 
   3  -2  10    0.66    0.20 
  -4   2 -10    0.46    0.17 
   4  -2  10    0.39    0.19 
   5  -2  10    0.08    0.18 
   6  -2  10   -0.03    0.19 
   6   1 -10    0.27    0.17 
   5   1 -10    0.06    0.12 
   4   1 -10    0.47    0.16 
   3   1 -10    0.41    0.15 
   2   1 -10    1.32    0.22 
   1   1 -10    0.67    0.16 
   0   1 -10    0.57    0.16 
   0  -1  10    0.27    0.13 
  -1   1 -10    0.11    0.11 
   1  -1  10   -0.06    0.09 
  -2   1 -10    1.17    0.21 
   2  -1  10    1.11    0.23 
  -3   1 -10    0.63    0.16 
   3  -1  10    0.59    0.21 
  -4   1 -10    0.23    0.15 
   4  -1  10    0.07    0.15 
  -5   1 -10    0.24    0.18 
   5  -1  10    0.23    0.18 
  -6   1 -10   -0.03    0.23 
   6  -1  10   -0.04    0.17 
   6   0 -10    2.88    0.40 
   5   0 -10    0.36    0.19 
   4   0 -10    1.05    0.22 
   3   0 -10    0.51    0.16 
   2   0 -10   18.23    0.73 
   1   0 -10    0.19    0.13 
   0   0 -10    9.23    0.49 
  -1   0 -10    0.10    0.11 
   1   0  10    0.22    0.12 
  -2   0 -10    0.08    0.10 
   2   0  10    0.11    0.13 
  -3   0 -10   -0.05    0.11 
   3   0  10    0.01    0.14 
  -4   0 -10    0.47    0.20 
   4   0  10    0.49    0.21 
  -5   0 -10    0.94    0.25 
   5   0  10    0.40    0.21 
   6  -1 -10    4.93    0.49 
   5  -1 -10    2.55    0.36 
   4  -1 -10    5.83    0.43 
   3  -1 -10    0.17    0.14 
   2  -1 -10    0.18    0.12 
   1  -1 -10    0.68    0.18 
   0  -1 -10    0.09    0.10 
  -1  -1 -10    1.36    0.24 
  -2  -1 -10    0.54    0.17 
   2   1  10    0.52    0.19 
  -3  -1 -10    2.44    0.33 
   3   1  10    2.44    0.33 
  -4  -1 -10    0.35    0.19 
   4   1  10    0.04    0.17 
  -5  -1 -10    1.07    0.27 
   5   1  10    1.38    0.30 
   6  -2 -10    2.83    0.39 
   5  -2 -10   -0.07    0.17 
   4  -2 -10    1.98    0.31 
   3  -2 -10    0.21    0.16 
   2  -2 -10    1.37    0.25 
   1  -2 -10    0.02    0.12 
   0  -2 -10    0.07    0.12 
  -1  -2 -10    1.62    0.26 
  -2  -2 -10    0.98    0.22 
  -3  -2 -10    0.96    0.24 
  -4  -2 -10    0.28    0.20 
   6  -3 -10    0.10    0.20 
   5  -3 -10    0.18    0.19 
   4  -3 -10    0.32    0.18 
   4  -3 -10    0.71    0.23 
   3  -3 -10    1.28    0.25 
   2  -3 -10    0.18    0.16 
   1  -3 -10    0.52    0.19 
   0  -3 -10    0.03    0.13 
  -1  -3 -10    0.05    0.15 
  -2  -3 -10    0.26    0.16 
  -3  -3 -10    0.69    0.22 
   5  -4 -10    0.31    0.22 
   5  -4 -10    0.78    0.23 
   4  -4 -10    0.36    0.20 
   4  -4 -10    0.22    0.20 
   3  -4 -10    0.50    0.20 
   2  -4 -10    0.17    0.16 
   1  -4 -10    0.05    0.17 
   0  -4 -10    1.10    0.26 
  -1  -4 -10    0.15    0.18 
  -2  -4 -10    1.65    0.32 
   4  -5 -10   -0.07    0.17 
   3  -5 -10    0.64    0.24 
   2  -5 -10    2.34    0.37 
   1  -5 -10    1.62    0.32 
   0  -5 -10    2.17    0.35 
  -1  -5 -10    0.43    0.23 
   0  -7  11    1.69    0.42 
   2  -7  11   -0.39    0.17 
  -2  -6  11    0.23    0.29 
  -1  -6  11    0.60    0.31 
   0  -6  11    0.81    0.30 
   1  -6  11    0.02    0.16 
   2  -6  11    0.01    0.15 
   3  -6  11    0.38    0.20 
   4  -6  11   -0.03    0.19 
   3   5 -11   -0.28    0.13 
  -3  -5  11   -0.25    0.26 
   2   5 -11   -0.05    0.16 
  -2  -5  11    0.39    0.30 
  -1  -5  11    0.79    0.29 
   0  -5  11    0.09    0.15 
   1  -5  11    1.32    0.24 
   2  -5  11    0.02    0.14 
   3  -5  11    1.14    0.24 
   4  -5  11   -0.04    0.14 
   5  -5  11    0.53    0.21 
   4   4 -11    0.14    0.17 
   3   4 -11    0.11    0.15 
   2   4 -11    0.17    0.15 
  -2  -4  11    0.10    0.23 
   1   4 -11    0.20    0.14 
  -1  -4  11    0.14    0.15 
  -1  -4  11    0.30    0.23 
   0   4 -11    0.02    0.12 
   0  -4  11   -0.12    0.10 
   1  -4  11    3.13    0.33 
   2  -4  11    0.88    0.22 
   3  -4  11    1.75    0.28 
   4  -4  11    0.55    0.21 
   5  -4  11   -0.01    0.15 
   5   3 -11    0.15    0.18 
   4   3 -11    0.17    0.16 
   3   3 -11    0.87    0.21 
   2   3 -11    0.63    0.18 
   1   3 -11    2.26    0.29 
   0   3 -11    0.28    0.14 
   0  -3  11    0.27    0.15 
  -1   3 -11    0.06    0.12 
   1  -3  11   -0.06    0.12 
  -2   3 -11    0.20    0.14 
   2  -3  11    0.13    0.13 
   3  -3  11    1.44    0.27 
   4  -3  11    0.02    0.14 
   5  -3  11    0.12    0.19 
   5   2 -11   -0.18    0.14 
   4   2 -11    0.36    0.17 
   3   2 -11    0.66    0.19 
   2   2 -11    0.26    0.13 
   1   2 -11    0.24    0.14 
   0   2 -11    1.03    0.21 
   0  -2  11    1.10    0.22 
  -1   2 -11    0.14    0.12 
   1  -2  11   -0.01    0.11 
  -2   2 -11   -0.03    0.11 
   2  -2  11   -0.08    0.12 
  -3   2 -11   -0.14    0.11 
   3  -2  11    0.00    0.11 
  -4   2 -11    1.90    0.31 
   4  -2  11    1.43    0.30 
   5  -2  11   -0.02    0.18 
   5   1 -11    0.18    0.15 
   4   1 -11    1.97    0.30 
   3   1 -11   -0.06    0.10 
   2   1 -11    0.16    0.13 
   1   1 -11    0.19    0.13 
   0   1 -11    4.56    0.39 
  -1   1 -11    1.43    0.25 
   1  -1  11    1.58    0.27 
  -2   1 -11    5.43    0.40 
   2  -1  11    5.88    0.46 
  -3   1 -11    1.36    0.25 
   3  -1  11    0.86    0.25 
  -4   1 -11    1.60    0.29 
   4  -1  11    1.10    0.28 
  -5   1 -11    0.18    0.20 
   5  -1  11    0.13    0.18 
   5   0 -11    0.57    0.24 
   4   0 -11    0.17    0.16 
   3   0 -11    2.26    0.31 
   2   0 -11    0.38    0.15 
   1   0 -11    1.92    0.28 
   0   0 -11    0.08    0.13 
  -1   0 -11    0.20    0.14 
  -2   0 -11    1.14    0.23 
   2   0  11    1.19    0.27 
  -3   0 -11    0.39    0.18 
   3   0  11    0.41    0.22 
  -4   0 -11    1.02    0.26 
   4   0  11    1.31    0.28 
   5  -1 -11    0.22    0.20 
   4  -1 -11    0.03    0.15 
   3  -1 -11    1.68    0.31 
   2  -1 -11    0.17    0.13 
   1  -1 -11    1.60    0.27 
   0  -1 -11    1.35    0.26 
  -1  -1 -11    0.07    0.11 
  -2  -1 -11    0.61    0.21 
  -3  -1 -11    0.22    0.15 
   3   1  11    0.34    0.21 
  -4  -1 -11    0.34    0.21 
   4   1  11    0.14    0.21 
   5  -2 -11    0.28    0.21 
   4  -2 -11    0.47    0.22 
   3  -2 -11   -0.11    0.14 
   2  -2 -11    0.29    0.19 
   1  -2 -11    0.47    0.19 
   0  -2 -11    0.44    0.17 
  -1  -2 -11    0.17    0.14 
  -2  -2 -11    0.45    0.17 
  -3  -2 -11    1.94    0.33 
   5  -3 -11    0.22    0.20 
   5  -3 -11    0.12    0.19 
   4  -3 -11   -0.02    0.18 
   3  -3 -11    0.73    0.26 
   2  -3 -11    0.75    0.23 
   1  -3 -11    1.64    0.32 
   0  -3 -11    0.12    0.17 
  -1  -3 -11    1.16    0.28 
  -2  -3 -11    1.23    0.26 
   4  -4 -11    0.31    0.21 
   3  -4 -11    1.26    0.31 
   2  -4 -11    1.23    0.30 
   1  -4 -11    1.21    0.29 
   0  -4 -11   -0.10    0.14 
  -1  -4 -11    0.15    0.17 
   2  -6  12    1.19    0.28 
  -2  -5  12    3.51    0.53 
   1  -5  12    0.61    0.19 
   2  -5  12    0.99    0.25 
   3  -5  12    0.15    0.15 
   3   4 -12    0.90    0.23 
   2   4 -12    0.05    0.15 
   1   4 -12    1.62    0.28 
   0  -4  12    1.17    0.24 
   1  -4  12    2.41    0.34 
   2  -4  12    0.81    0.22 
   3  -4  12    1.15    0.27 
   4  -4  12    0.29    0.17 
   4   3 -12    0.43    0.20 
   3   3 -12    3.17    0.37 
   2   3 -12    2.18    0.31 
   1   3 -12    4.96    0.42 
   0   3 -12    0.20    0.15 
   0  -3  12    0.16    0.15 
  -1   3 -12    3.38    0.35 
   1  -3  12    3.64    0.39 
   2  -3  12    1.68    0.30 
   3  -3  12    0.31    0.18 
   4  -3  12    0.95    0.25 
   4   2 -12    0.22    0.17 
   3   2 -12   11.35    0.61 
   2   2 -12    0.74    0.22 
   1   2 -12    6.55    0.44 
   0   2 -12    0.86    0.21 
   0  -2  12    0.72    0.20 
  -1   2 -12    0.04    0.14 
   1  -2  12   -0.14    0.13 
  -2   2 -12    0.00    0.13 
   2  -2  12    0.08    0.15 
  -3   2 -12    1.25    0.26 
   3  -2  12    1.24    0.28 
   4  -2  12    0.08    0.20 
   4   1 -12    0.10    0.15 
   3   1 -12    0.27    0.16 
   2   1 -12    0.11    0.14 
   1   1 -12    1.00    0.23 
   0   1 -12    1.10    0.24 
  -1   1 -12    0.91    0.22 
   1  -1  12    0.46    0.17 
  -2   1 -12    2.29    0.32 
   2  -1  12    2.49    0.35 
  -3   1 -12   -0.05    0.14 
   3  -1  12    0.01    0.19 
  -4   1 -12    2.50    0.36 
   4  -1  12    2.98    0.41 
   4   0 -12    0.17    0.15 
   3   0 -12    0.16    0.14 
   2   0 -12    0.70    0.20 
   1   0 -12    0.61    0.19 
   0   0 -12    6.66    0.47 
  -1   0 -12    0.70    0.20 
  -2   0 -12    6.68    0.48 
   2   0  12    6.75    0.55 
  -3   0 -12    0.09    0.17 
   3   0  12    0.50    0.24 
   4  -1 -12    4.76    0.48 
   3  -1 -12    0.17    0.16 
   2  -1 -12   10.53    0.61 
   1  -1 -12    0.16    0.15 
   0  -1 -12    5.79    0.49 
  -1  -1 -12    0.09    0.15 
  -2  -1 -12    1.73    0.31 
  -3  -1 -12    1.27    0.30 
   4  -2 -12    2.75    0.40 
   3  -2 -12    0.80    0.26 
   2  -2 -12    6.70    0.54 
   1  -2 -12    1.48    0.29 
   0  -2 -12    4.66    0.46 
  -1  -2 -12    0.17    0.16 
  -2  -2 -12   -0.01    0.15 
   3  -3 -12    0.10    0.17 
   2  -3 -12    0.17    0.21 
   1  -3 -12    0.18    0.19 
   0  -3 -12   -0.05    0.16 
  -1  -3 -12    1.56    0.30 
   0  -4  13    0.27    0.20 
   1  -4  13    4.85    0.46 
   2  -4  13    0.03    0.18 
   2   3 -13    1.55    0.30 
   1   3 -13    9.33    0.56 
   0   3 -13    0.66    0.22 
   0  -3  13    0.53    0.21 
  -1   3 -13    7.60    0.54 
   1  -3  13    7.87    0.53 
   2  -3  13    0.25    0.19 
   3   2 -13    3.32    0.40 
   2   2 -13    0.47    0.19 
   1   2 -13    2.08    0.32 
   0   2 -13    0.17    0.16 
  -1   2 -13    1.88    0.31 
   1  -2  13    1.53    0.31 
  -2   2 -13   -0.06    0.16 
   2  -2  13   -0.03    0.15 
   3  -2  13    0.65    0.25 
   3   1 -13    1.18    0.26 
   2   1 -13    1.36    0.28 
   1   1 -13    0.93    0.25 
   0   1 -13    0.20    0.17 
  -1   1 -13    0.27    0.17 
  -2   1 -13    4.77    0.45 
   2  -1  13    4.05    0.46 
   3   0 -13    0.01    0.16 
   2   0 -13    2.46    0.35 
   1   0 -13    0.30    0.18 
   0   0 -13    3.00    0.40 
  -1   0 -13    0.32    0.21 
  -2   0 -13    1.51    0.30 
   3  -1 -13    1.48    0.27 
   2  -1 -13    0.37    0.19 
   1  -1 -13    1.86    0.33 
   0  -1 -13    0.46    0.21 
  -1  -1 -13    0.41    0.18 
   0   0   0    0.00    0.00 
;
_shelx_hkl_checksum              97411
loop_
_space_group_symop_operation_xyz
'x, y, z'
'-x, -y, -z'
loop_
_atom_site_label
_atom_site_type_symbol
_atom_site_fract_x
_atom_site_fract_y
_atom_site_fract_z
_atom_site_U_iso_or_equiv
_atom_site_adp_type
_atom_site_occupancy
_atom_site_site_symmetry_order
_atom_site_calc_flag
_atom_site_refinement_flags_posn
_atom_site_refinement_flags_adp
N1 N 0.29535(18) 0.18008(16) 0.74875(12) 0.0358(4) Uani 1 1 d . .
N2 N 0.1345(3) -0.4597(2) 0.32228(18) 0.0725(6) Uani 1 1 d . .
N3 N 0.3066(3) 0.0588(3) 0.16938(15) 0.0689(5) Uani 1 1 d . .
C1 C 0.2396(2) -0.0123(2) 0.49226(14) 0.0339(4) Uani 1 1 d . .
C2 C 0.2021(2) -0.1000(2) 0.60197(14) 0.0363(4) Uani 1 1 d . .
H2 H 0.1566 -0.2264 0.5887 0.044 Uiso 1 1 calc R U
C3 C 0.2298(2) -0.0068(2) 0.72645(14) 0.0354(4) Uani 1 1 d . .
C4 C 0.3191(2) 0.2736(2) 0.64466(15) 0.0361(4) Uani 1 1 d . .
C5 C 0.2910(2) 0.1800(2) 0.52030(15) 0.0373(4) Uani 1 1 d . .
H5 H 0.3062 0.2452 0.4512 0.045 Uiso 1 1 calc R U
C6 C 0.2244(2) -0.1099(2) 0.36361(15) 0.0401(4) Uani 1 1 d . .
C7 C 0.1753(2) -0.3023(3) 0.33943(16) 0.0481(5) Uani 1 1 d . .
C8 C 0.2692(2) -0.0176(3) 0.25614(16) 0.0463(5) Uani 1 1 d . .
C9 C 0.1890(3) -0.1061(2) 0.84019(16) 0.0492(5) Uani 1 1 d . .
H9A H 0.1158 -0.2291 0.8094 0.074 Uiso 1 1 calc R U
H9B H 0.1154 -0.0450 0.9001 0.074 Uiso 1 1 calc R U
H9C H 0.3098 -0.1077 0.8839 0.074 Uiso 1 1 calc R U
C10 C 0.3753(3) 0.4777(2) 0.67017(18) 0.0510(5) Uani 1 1 d . .
H10A H 0.3664 0.5225 0.5893 0.077 Uiso 1 1 calc R U
H10B H 0.5066 0.5195 0.7083 0.077 Uiso 1 1 calc R U
H10C H 0.2890 0.5222 0.7293 0.077 Uiso 1 1 calc R U
C11 C 0.3425(2) 0.2801(2) 0.88470(15) 0.0464(5) Uani 1 1 d . .
H11A H 0.4511 0.3850 0.8852 0.056 Uiso 1 1 calc R U
H11B H 0.3834 0.2010 0.9386 0.056 Uiso 1 1 calc R U
C12 C 0.1734(3) 0.3450(3) 0.94455(17) 0.0587(5) Uani 1 1 d . .
H12A H 0.1438 0.4366 0.8992 0.088 Uiso 1 1 calc R U
H12B H 0.2078 0.3957 1.0351 0.088 Uiso 1 1 calc R U
H12C H 0.0614 0.2437 0.9372 0.088 Uiso 1 1 calc R U
loop_
_atom_site_aniso_label
_atom_site_aniso_U_11
_atom_site_aniso_U_22
_atom_site_aniso_U_33
_atom_site_aniso_U_23
_atom_site_aniso_U_13
_atom_site_aniso_U_12
N1 0.0378(7) 0.0356(7) 0.0331(7) 0.0038(5) 0.0030(5) 0.0082(6)
N2 0.0818(13) 0.0530(11) 0.0744(12) -0.0092(9) -0.0033(10) 0.0142(9)
N3 0.0763(12) 0.0912(14) 0.0392(9) 0.0170(9) 0.0068(8) 0.0162(10)
C1 0.0289(8) 0.0399(9) 0.0338(8) 0.0059(6) 0.0024(6) 0.0105(6)
C2 0.0388(9) 0.0311(8) 0.0396(9) 0.0065(6) 0.0031(6) 0.0091(7)
C3 0.0354(8) 0.0357(9) 0.0365(8) 0.0081(6) 0.0033(6) 0.0098(7)
C4 0.0324(8) 0.0364(9) 0.0408(9) 0.0099(7) 0.0067(6) 0.0084(6)
C5 0.0373(9) 0.0411(9) 0.0359(8) 0.0136(7) 0.0069(6) 0.0092(7)
C6 0.0395(9) 0.0466(10) 0.0335(9) 0.0029(7) 0.0009(6) 0.0119(7)
C7 0.0470(10) 0.0550(12) 0.0394(9) -0.0034(8) -0.0016(7) 0.0146(8)
C8 0.0433(10) 0.0605(11) 0.0329(9) 0.0004(8) -0.0007(7) 0.0137(8)
C9 0.0655(12) 0.0445(10) 0.0393(9) 0.0133(7) 0.0070(8) 0.0127(8)
C10 0.0598(11) 0.0358(10) 0.0562(11) 0.0080(8) 0.0136(9) 0.0076(8)
C11 0.0519(10) 0.0464(10) 0.0348(9) 0.0005(7) -0.0019(7) 0.0048(8)
C12 0.0713(13) 0.0586(12) 0.0414(10) -0.0025(8) 0.0123(9) 0.0123(10)
loop_
_atom_type_symbol
_atom_type_description
_atom_type_scat_dispersion_real
_atom_type_scat_dispersion_imag
_atom_type_scat_source
C C 0.0033 0.0016 'International Tables Vol C Tables 4.2.6.8 and 6.1.1.4'
H H 0.0000 0.0000 'International Tables Vol C Tables 4.2.6.8 and 6.1.1.4'
N N 0.0061 0.0033 'International Tables Vol C Tables 4.2.6.8 and 6.1.1.4'
loop_
_geom_angle_atom_site_label_1
_geom_angle_atom_site_label_2
_geom_angle_atom_site_label_3
_geom_angle
C3 N1 C4 119.84(13)
C3 N1 C11 119.86(13)
C4 N1 C11 120.30(13)
C2 C1 C5 115.03(13)
C2 C1 C6 122.50(14)
C5 C1 C6 122.47(13)
C3 C2 C1 122.48(14)
C3 C2 H2 118.8
C1 C2 H2 118.8
C2 C3 N1 119.94(13)
C2 C3 C9 120.58(14)
N1 C3 C9 119.47(13)
C5 C4 N1 119.90(14)
C5 C4 C10 120.71(14)
N1 C4 C10 119.40(14)
C4 C5 C1 122.40(14)
C4 C5 H5 118.8
C1 C5 H5 118.8
C7 C6 C1 120.90(14)
C7 C6 C8 118.01(14)
C1 C6 C8 120.99(15)
N2 C7 C6 178.63(19)
N3 C8 C6 179.4(2)
C3 C9 H9A 109.5
C3 C9 H9B 109.5
H9A C9 H9B 109.5
C3 C9 H9C 109.5
H9A C9 H9C 109.5
H9B C9 H9C 109.5
C4 C10 H10A 109.5
C4 C10 H10B 109.5
H10A C10 H10B 109.5
C4 C10 H10C 109.5
H10A C10 H10C 109.5
H10B C10 H10C 109.5
N1 C11 C12 113.46(13)
N1 C11 H11A 108.9
C12 C11 H11A 108.9
N1 C11 H11B 108.9
C12 C11 H11B 108.9
H11A C11 H11B 107.7
C11 C12 H12A 109.5
C11 C12 H12B 109.5
H12A C12 H12B 109.5
C11 C12 H12C 109.5
H12A C12 H12C 109.5
H12B C12 H12C 109.5
loop_
_geom_bond_atom_site_label_1
_geom_bond_atom_site_label_2
_geom_bond_distance
N1 C3 1.374(2)
N1 C4 1.378(2)
N1 C11 1.484(2)
N2 C7 1.153(2)
N3 C8 1.152(2)
C1 C2 1.409(2)
C1 C5 1.410(2)
C1 C6 1.412(2)
C2 C3 1.359(2)
C2 H2 0.9300
C3 C9 1.499(2)
C4 C5 1.359(2)
C4 C10 1.495(2)
C5 H5 0.9300
C6 C7 1.409(3)
C6 C8 1.415(2)
C9 H9A 0.9600
C9 H9B 0.9600
C9 H9C 0.9600
C10 H10A 0.9600
C10 H10B 0.9600
C10 H10C 0.9600
C11 C12 1.516(3)
C11 H11A 0.9700
C11 H11B 0.9700
C12 H12A 0.9600
C12 H12B 0.9600
C12 H12C 0.9600
loop_
_geom_torsion_atom_site_label_1
_geom_torsion_atom_site_label_2
_geom_torsion_atom_site_label_3
_geom_torsion_atom_site_label_4
_geom_torsion
C5 C1 C2 C3 -5.5(2)
C6 C1 C2 C3 175.28(14)
C1 C2 C3 N1 0.5(2)
C1 C2 C3 C9 -179.60(14)
C4 N1 C3 C2 4.8(2)
C11 N1 C3 C2 -174.50(13)
C4 N1 C3 C9 -175.11(14)
C11 N1 C3 C9 5.6(2)
C3 N1 C4 C5 -4.7(2)
C11 N1 C4 C5 174.58(13)
C3 N1 C4 C10 175.18(14)
C11 N1 C4 C10 -5.6(2)
N1 C4 C5 C1 -0.7(2)
C10 C4 C5 C1 179.43(14)
C2 C1 C5 C4 5.6(2)
C6 C1 C5 C4 -175.20(14)
C2 C1 C6 C7 -1.7(2)
C5 C1 C6 C7 179.11(14)
C2 C1 C6 C8 -177.99(14)
C5 C1 C6 C8 2.9(2)
C3 N1 C11 C12 -92.70(18)
C4 N1 C11 C12 88.03(18)
