#------------------------------------------------------------------------------
#$Date: 2021-09-06 13:34:05 +0300 (Mon, 06 Sep 2021) $
#$Revision: 268695 $
#$URL: file:///home/coder/svn-repositories/cod/cif/7/24/25/7242545.cif $
#------------------------------------------------------------------------------
#
# This file is available in the Crystallography Open Database (COD),
# http://www.crystallography.net/
#
# All data on this site have been placed in the public domain by the
# contributors.
#
data_7242545
loop_
_publ_author_name
'Shu, Yuanhong'
'Ye, Kaiqi'
'Yue, Yuan'
'Sun, Jingbo'
'Wang, Haoran'
'Zhong, Jiangbin'
'Yang, Xiqiao'
'Gao, Hongqiang'
'Lu, Ran'
_publ_section_title
;
 Fluorine as a robust balancer for tuning the reactivity of
 topo-photoreactions of chalcones and the photomechanical effects of
 molecular crystals
;
_journal_issue                   34
_journal_name_full               CrystEngComm
_journal_page_first              5856
_journal_page_last               5868
_journal_paper_doi               10.1039/D1CE00086A
_journal_volume                  23
_journal_year                    2021
_chemical_formula_moiety         'C16 H11 F3 O'
_chemical_formula_sum            'C16 H11 F3 O'
_chemical_formula_weight         276.25
_space_group_crystal_system      triclinic
_space_group_IT_number           2
_space_group_name_Hall           '-P 1'
_space_group_name_H-M_alt        'P -1'
_atom_sites_solution_hydrogens   geom
_atom_sites_solution_primary     iterative
_audit_creation_date             2019-11-18
_audit_creation_method
;
Olex2 1.2
(compiled 2018.05.29 svn.r3508 for OlexSys, GUI svn.r5506)
;
_audit_update_record
;
2019-12-30 deposited with the CCDC.	2021-03-26 downloaded from the CCDC.
;
_cell_angle_alpha                94.221(4)
_cell_angle_beta                 95.914(3)
_cell_angle_gamma                93.999(4)
_cell_formula_units_Z            2
_cell_length_a                   5.5139(4)
_cell_length_b                   7.8716(7)
_cell_length_c                   15.1925(12)
_cell_measurement_reflns_used    4972
_cell_measurement_temperature    196(2)
_cell_measurement_theta_max      27.244
_cell_measurement_theta_min      2.705
_cell_volume                     652.12(9)
_computing_cell_refinement       'SAINT V8.38A (?, 2016)'
_computing_data_reduction        'SAINT V8.38A (?, 2016)'
_computing_molecular_graphics    'Olex2 (Dolomanov et al., 2009)'
_computing_publication_material  'Olex2 (Dolomanov et al., 2009)'
_computing_structure_refinement  'XL (Sheldrick, 2008)'
_computing_structure_solution    'olex2.solve (Bourhis et al., 2015)'
_diffrn_ambient_temperature      196.4
_diffrn_measured_fraction_theta_full 0.998
_diffrn_measured_fraction_theta_max 0.988
_diffrn_measurement_device_type  'Bruker APEX-II CCD'
_diffrn_radiation_type           MoK\a
_diffrn_radiation_wavelength     0.71073
_diffrn_reflns_av_R_equivalents  0.0354
_diffrn_reflns_av_unetI/netI     0.0309
_diffrn_reflns_Laue_measured_fraction_full 0.998
_diffrn_reflns_Laue_measured_fraction_max 0.988
_diffrn_reflns_limit_h_max       7
_diffrn_reflns_limit_h_min       -7
_diffrn_reflns_limit_k_max       10
_diffrn_reflns_limit_k_min       -10
_diffrn_reflns_limit_l_max       19
_diffrn_reflns_limit_l_min       -19
_diffrn_reflns_number            12988
_diffrn_reflns_point_group_measured_fraction_full 0.998
_diffrn_reflns_point_group_measured_fraction_max 0.988
_diffrn_reflns_theta_full        25.242
_diffrn_reflns_theta_max         27.440
_diffrn_reflns_theta_min         2.705
_diffrn_standards_number         0
_exptl_absorpt_coefficient_mu    0.116
_exptl_crystal_colour            colourless
_exptl_crystal_colour_primary    colourless
_exptl_crystal_density_diffrn    1.407
_exptl_crystal_description       plate
_exptl_crystal_F_000             284
_exptl_crystal_size_max          0.31
_exptl_crystal_size_mid          0.29
_exptl_crystal_size_min          0.23
_refine_diff_density_max         0.160
_refine_diff_density_min         -0.141
_refine_diff_density_rms         0.031
_refine_ls_extinction_method     none
_refine_ls_goodness_of_fit_ref   1.039
_refine_ls_hydrogen_treatment    constr
_refine_ls_matrix_type           full
_refine_ls_number_parameters     182
_refine_ls_number_reflns         2934
_refine_ls_number_restraints     0
_refine_ls_restrained_S_all      1.039
_refine_ls_R_factor_all          0.0835
_refine_ls_R_factor_gt           0.0456
_refine_ls_shift/su_max          0.000
_refine_ls_shift/su_mean         0.000
_refine_ls_structure_factor_coef Fsqd
_refine_ls_weighting_details
'w=1/[\s^2^(Fo^2^)+(0.0560P)^2^+0.1068P] where P=(Fo^2^+2Fc^2^)/3'
_refine_ls_weighting_scheme      calc
_refine_ls_wR_factor_gt          0.1124
_refine_ls_wR_factor_ref         0.1361
_reflns_Friedel_coverage         0.000
_reflns_number_gt                1759
_reflns_number_total             2934
_reflns_threshold_expression     'I > 2\s(I)'
_iucr_refine_instructions_details
;

    1.res created by SHELXL-2014/7

TITL 1_a.res in P-1
CELL 0.71073 5.5139 7.8716 15.1925 94.221 95.914 93.999
ZERR 2 0.0004 0.0007 0.0012 0.004 0.003 0.004
LATT 1
SFAC C H O F
UNIT 32 22 2 6
EQIV $1 -X,-Y,1-Z
EQIV $2 2-X,1-Y,1-Z
 
L.S. 20
PLAN  -3 0 0
TEMP -76.75
HTAB C1 O1_$1
HTAB C5 F3_$2
HTAB
BOND $H
CONF
fmap 2
acta
REM <olex2.extras>
REM <HklSrc "%.\\1.hkl">
REM </olex2.extras>
 
WGHT    0.056000    0.106800
FVAR       1.35085
F1    4    0.636941    0.210577    0.819072    11.00000    0.11292    0.11761 =
         0.04172    0.02100    0.00991   -0.00637
F2    4    1.048791    0.400202    0.794500    11.00000    0.09397    0.10534 =
         0.05348    0.00381   -0.01901   -0.00799
F3    4    1.121937    0.490344    0.632397    11.00000    0.06632    0.08915 =
         0.06985    0.00918   -0.00150   -0.02263
O1    3   -0.019962    0.077786    0.372773    11.00000    0.06270    0.11295 =
         0.06054    0.02355    0.00209   -0.02801
C1    1    0.503064    0.197367    0.666568    11.00000    0.06137    0.05815 =
         0.04804    0.01025    0.01053   -0.00163
AFIX  43
H1    2    0.359315    0.130223    0.675780    11.00000   -1.20000
AFIX   0
C2    1    0.673046    0.251202    0.736639    11.00000    0.07813    0.06691 =
         0.03691    0.01038    0.00859    0.00687
C3    1    0.881836    0.347799    0.725770    11.00000    0.06576    0.06319 =
         0.04606    0.00044   -0.00649    0.00300
C4    1    0.917394    0.391666    0.642156    11.00000    0.05540    0.05561 =
         0.05211    0.00628    0.00372   -0.00274
C5    1    0.752958    0.340034    0.570503    11.00000    0.05782    0.05477 =
         0.04273    0.00754    0.00601   -0.00065
AFIX  43
H5    2    0.782847    0.371410    0.513167    11.00000   -1.20000
AFIX   0
C6    1    0.540672    0.240986    0.581636    11.00000    0.05456    0.04757 =
         0.04199    0.00672    0.00590    0.00413
C7    1    0.355539    0.184728    0.507576    11.00000    0.05177    0.05385 =
         0.04746    0.00837    0.00611   -0.00221
AFIX  43
H7    2    0.214066    0.120263    0.521213    11.00000   -1.20000
AFIX   0
C8    1    0.364929    0.214320    0.423886    11.00000    0.05294    0.06322 =
         0.04445    0.00928    0.00322   -0.00720
AFIX  43
H8    2    0.505308    0.276695    0.407898    11.00000   -1.20000
AFIX   0
C9    1    0.165940    0.154350    0.354085    11.00000    0.04987    0.06057 =
         0.05073    0.01045    0.00454   -0.00314
C10   1    0.191427    0.189284    0.260606    11.00000    0.05187    0.05727 =
         0.04417    0.00681    0.00210    0.00021
C11   1    0.393454    0.279006    0.234884    11.00000    0.05978    0.08466 =
         0.04725    0.00764    0.00266   -0.01537
AFIX  43
H11   2    0.526373    0.318635    0.277992    11.00000   -1.20000
AFIX   0
C12   1    0.404029    0.311469    0.147632    11.00000    0.07858    0.10091 =
         0.05383    0.01500    0.01196   -0.01980
AFIX  43
H12   2    0.544737    0.373511    0.131681    11.00000   -1.20000
AFIX   0
C13   1    0.216776    0.256671    0.082904    11.00000    0.09022    0.08637 =
         0.04602    0.01092    0.00350   -0.00482
C14   1    0.016144    0.166705    0.108642    11.00000    0.08180    0.10363 =
         0.05140    0.01065   -0.01230   -0.01545
AFIX  43
H14   2   -0.115889    0.126376    0.065305    11.00000   -1.20000
AFIX   0
C15   1    0.003240    0.134218    0.195555    11.00000    0.06332    0.08801 =
         0.05586    0.01459   -0.00483   -0.01675
AFIX  43
H15   2   -0.138072    0.072573    0.211295    11.00000   -1.20000
AFIX   0
C16   1    0.228368    0.295410   -0.012335    11.00000    0.15256    0.14771 =
         0.04904    0.02397    0.00544   -0.02843
AFIX 137
H16A  2    0.262469    0.418656   -0.015078    11.00000   -1.50000
H16B  2    0.071457    0.258086   -0.047024    11.00000   -1.50000
H16C  2    0.358714    0.234674   -0.036825    11.00000   -1.50000
AFIX   0
HKLF 4
 
REM  1_a.res in P-1
REM R1 =  0.0456 for    1759 Fo > 4sig(Fo)  and  0.0835 for all    2934 data
REM    182 parameters refined using      0 restraints
 
END  
     
WGHT      0.0560      0.1068 

REM Instructions for potential hydrogen bonds
HTAB C1 O1_$1
HTAB C5 F3_$2

REM Highest difference peak  0.160,  deepest hole -0.141,  1-sigma level  0.031
Q1    1   0.4128  0.3507 -0.0193  11.00000  0.05    0.16
Q2    1   0.5501  0.2757  0.7072  11.00000  0.05    0.13
Q3    1   0.4560  0.3569  0.4185  11.00000  0.05    0.12

  REM The information below was added by Olex2.
  REM
  REM R1 = 0.0456 for 1759 Fo > 4sig(Fo) and 0.0835 for all 12988 data
  REM n/a parameters refined using n/a restraints
  REM Highest difference peak 0.16, deepest hole -0.14
  REM Mean Shift 0, Max Shift 0.000.

  REM +++ Tabular Listing of Refinement Information +++
  REM R1_all = 0.0835
  REM R1_gt = 0.0456
  REM wR_ref = 0.1361
  REM GOOF = 1.039
  REM Shift_max = 0.000
  REM Shift_mean = 0
  REM Reflections_all = 12988
  REM Reflections_gt = 1759
  REM Parameters = n/a
  REM Hole = -0.14
  REM Peak = 0.16
  REM Flack = n/a

  
;
_cod_data_source_file            d1ce00086a31.cif
_cod_data_source_block           3FChMe-4
_cod_depositor_comments
'Adding full bibliography for 7242537--7242549.cif.'
_cod_database_code               7242545
_shelx_shelxl_version_number     2014/7
_shelx_space_group_comment
;
The symmetry employed for this shelxl refinement is uniquely defined
by the following loop, which should always be used as a source of
symmetry information in preference to the above space-group names.
They are only intended as comments.
;
_olex2_refinement_description
;
1. Fixed Uiso
 At 1.2 times of:
  All C(H) groups
 At 1.5 times of:
  All C(H,H,H) groups
2.a Aromatic/amide H refined with riding coordinates:
 C1(H1), C5(H5), C7(H7), C8(H8), C11(H11), C12(H12), C14(H14), C15(H15)
2.b Idealised Me refined as rotating group:
 C16(H16A,H16B,H16C)
;
_olex2_submission_special_instructions 'No special instructions were received'
loop_
_space_group_symop_operation_xyz
'x, y, z'
'-x, -y, -z'
loop_
_atom_site_label
_atom_site_type_symbol
_atom_site_fract_x
_atom_site_fract_y
_atom_site_fract_z
_atom_site_U_iso_or_equiv
_atom_site_adp_type
_atom_site_occupancy
_atom_site_site_symmetry_order
_atom_site_calc_flag
_atom_site_refinement_flags_posn
_atom_site_refinement_flags_adp
_atom_site_refinement_flags_occupancy
_atom_site_disorder_assembly
_atom_site_disorder_group
F1 F 0.6369(3) 0.21058(18) 0.81907(7) 0.0906(4) Uani 1 1 d . . . . .
F2 F 1.0488(2) 0.40020(17) 0.79450(7) 0.0870(4) Uani 1 1 d . . . . .
F3 F 1.1219(2) 0.49034(15) 0.63240(7) 0.0769(4) Uani 1 1 d . . . . .
O1 O -0.0200(2) 0.0778(2) 0.37277(9) 0.0799(5) Uani 1 1 d . . . . .
C1 C 0.5031(3) 0.1974(2) 0.66657(11) 0.0555(4) Uani 1 1 d . . . . .
H1 H 0.3593 0.1302 0.6758 0.067 Uiso 1 1 calc R . . . .
C2 C 0.6730(4) 0.2512(2) 0.73664(11) 0.0601(5) Uani 1 1 d . . . . .
C3 C 0.8818(3) 0.3478(2) 0.72577(12) 0.0595(5) Uani 1 1 d . . . . .
C4 C 0.9174(3) 0.3917(2) 0.64216(12) 0.0548(4) Uani 1 1 d . . . . .
C5 C 0.7530(3) 0.3400(2) 0.57050(11) 0.0518(4) Uani 1 1 d . . . . .
H5 H 0.7828 0.3714 0.5132 0.062 Uiso 1 1 calc R . . . .
C6 C 0.5407(3) 0.2410(2) 0.58164(10) 0.0478(4) Uani 1 1 d . . . . .
C7 C 0.3555(3) 0.1847(2) 0.50758(11) 0.0511(4) Uani 1 1 d . . . . .
H7 H 0.2141 0.1203 0.5212 0.061 Uiso 1 1 calc R . . . .
C8 C 0.3649(3) 0.2143(2) 0.42389(11) 0.0540(4) Uani 1 1 d . . . . .
H8 H 0.5053 0.2767 0.4079 0.065 Uiso 1 1 calc R . . . .
C9 C 0.1659(3) 0.1543(2) 0.35408(12) 0.0538(4) Uani 1 1 d . . . . .
C10 C 0.1914(3) 0.1893(2) 0.26061(11) 0.0514(4) Uani 1 1 d . . . . .
C11 C 0.3935(3) 0.2790(3) 0.23488(12) 0.0650(5) Uani 1 1 d . . . . .
H11 H 0.5264 0.3186 0.2780 0.078 Uiso 1 1 calc R . . . .
C12 C 0.4040(4) 0.3115(3) 0.14763(13) 0.0783(6) Uani 1 1 d . . . . .
H12 H 0.5447 0.3735 0.1317 0.094 Uiso 1 1 calc R . . . .
C13 C 0.2168(4) 0.2567(3) 0.08290(13) 0.0748(6) Uani 1 1 d . . . . .
C14 C 0.0161(4) 0.1667(3) 0.10864(14) 0.0812(7) Uani 1 1 d . . . . .
H14 H -0.1159 0.1264 0.0653 0.097 Uiso 1 1 calc R . . . .
C15 C 0.0032(4) 0.1342(3) 0.19556(13) 0.0705(6) Uani 1 1 d . . . . .
H15 H -0.1381 0.0726 0.2113 0.085 Uiso 1 1 calc R . . . .
C16 C 0.2284(6) 0.2954(4) -0.01233(15) 0.1179(11) Uani 1 1 d . . . . .
H16A H 0.2625 0.4187 -0.0151 0.177 Uiso 1 1 calc GR . . . .
H16B H 0.0715 0.2581 -0.0470 0.177 Uiso 1 1 calc GR . . . .
H16C H 0.3587 0.2347 -0.0368 0.177 Uiso 1 1 calc GR . . . .
loop_
_atom_site_aniso_label
_atom_site_aniso_U_11
_atom_site_aniso_U_22
_atom_site_aniso_U_33
_atom_site_aniso_U_23
_atom_site_aniso_U_13
_atom_site_aniso_U_12
F1 0.1129(10) 0.1176(10) 0.0417(6) 0.0210(6) 0.0099(6) -0.0064(8)
F2 0.0940(9) 0.1053(10) 0.0535(7) 0.0038(6) -0.0190(6) -0.0080(7)
F3 0.0663(7) 0.0892(8) 0.0699(8) 0.0092(6) -0.0015(6) -0.0226(6)
O1 0.0627(8) 0.1129(12) 0.0605(9) 0.0235(8) 0.0021(6) -0.0280(8)
C1 0.0614(10) 0.0581(11) 0.0480(10) 0.0103(8) 0.0105(8) -0.0016(8)
C2 0.0781(12) 0.0669(12) 0.0369(9) 0.0104(8) 0.0086(8) 0.0069(10)
C3 0.0658(11) 0.0632(11) 0.0461(10) 0.0004(8) -0.0065(8) 0.0030(9)
C4 0.0554(10) 0.0556(10) 0.0521(10) 0.0063(8) 0.0037(8) -0.0027(8)
C5 0.0578(10) 0.0548(10) 0.0427(9) 0.0075(7) 0.0060(8) -0.0007(8)
C6 0.0546(9) 0.0476(9) 0.0420(9) 0.0067(7) 0.0059(7) 0.0041(7)
C7 0.0518(9) 0.0539(10) 0.0475(10) 0.0084(7) 0.0061(7) -0.0022(7)
C8 0.0529(9) 0.0632(11) 0.0444(10) 0.0093(8) 0.0032(7) -0.0072(8)
C9 0.0499(9) 0.0606(11) 0.0507(10) 0.0104(8) 0.0045(8) -0.0031(8)
C10 0.0519(9) 0.0573(10) 0.0442(9) 0.0068(8) 0.0021(7) 0.0002(8)
C11 0.0598(11) 0.0847(14) 0.0473(10) 0.0076(9) 0.0027(8) -0.0154(9)
C12 0.0786(13) 0.1009(16) 0.0538(12) 0.0150(11) 0.0120(10) -0.0198(12)
C13 0.0902(15) 0.0864(15) 0.0460(11) 0.0109(10) 0.0035(10) -0.0048(12)
C14 0.0818(14) 0.1036(17) 0.0514(12) 0.0107(11) -0.0123(10) -0.0154(12)
C15 0.0633(11) 0.0880(14) 0.0559(12) 0.0146(10) -0.0048(9) -0.0167(10)
C16 0.153(3) 0.148(3) 0.0490(13) 0.0240(15) 0.0054(15) -0.028(2)
loop_
_atom_type_symbol
_atom_type_description
_atom_type_scat_dispersion_real
_atom_type_scat_dispersion_imag
_atom_type_scat_source
C C 0.0033 0.0016 'International Tables Vol C Tables 4.2.6.8 and 6.1.1.4'
H H 0.0000 0.0000 'International Tables Vol C Tables 4.2.6.8 and 6.1.1.4'
O O 0.0106 0.0060 'International Tables Vol C Tables 4.2.6.8 and 6.1.1.4'
F F 0.0171 0.0103 'International Tables Vol C Tables 4.2.6.8 and 6.1.1.4'
loop_
_geom_angle_atom_site_label_1
_geom_angle_atom_site_label_2
_geom_angle_atom_site_label_3
_geom_angle
_geom_angle_site_symmetry_1
_geom_angle_site_symmetry_3
_geom_angle_publ_flag
C2 C1 H1 120.0 . . ?
C2 C1 C6 119.90(16) . . ?
C6 C1 H1 120.0 . . ?
F1 C2 C1 120.21(17) . . ?
F1 C2 C3 118.20(17) . . ?
C1 C2 C3 121.59(16) . . ?
F2 C3 C2 121.56(17) . . ?
F2 C3 C4 120.08(17) . . ?
C2 C3 C4 118.36(16) . . ?
F3 C4 C3 117.91(16) . . ?
F3 C4 C5 120.20(15) . . ?
C5 C4 C3 121.88(16) . . ?
C4 C5 H5 120.2 . . ?
C4 C5 C6 119.68(15) . . ?
C6 C5 H5 120.2 . . ?
C1 C6 C5 118.58(16) . . ?
C1 C6 C7 119.29(15) . . ?
C5 C6 C7 122.13(14) . . ?
C6 C7 H7 116.7 . . ?
C8 C7 C6 126.54(16) . . ?
C8 C7 H7 116.7 . . ?
C7 C8 H8 118.8 . . ?
C7 C8 C9 122.41(16) . . ?
C9 C8 H8 118.8 . . ?
O1 C9 C8 120.44(16) . . ?
O1 C9 C10 120.10(15) . . ?
C8 C9 C10 119.45(14) . . ?
C11 C10 C9 123.30(15) . . ?
C15 C10 C9 119.20(15) . . ?
C15 C10 C11 117.47(16) . . ?
C10 C11 H11 119.6 . . ?
C12 C11 C10 120.73(17) . . ?
C12 C11 H11 119.6 . . ?
C11 C12 H12 119.1 . . ?
C13 C12 C11 121.80(19) . . ?
C13 C12 H12 119.1 . . ?
C12 C13 C14 117.36(18) . . ?
C12 C13 C16 121.4(2) . . ?
C14 C13 C16 121.2(2) . . ?
C13 C14 H14 119.3 . . ?
C15 C14 C13 121.33(19) . . ?
C15 C14 H14 119.3 . . ?
C10 C15 H15 119.3 . . ?
C14 C15 C10 121.31(18) . . ?
C14 C15 H15 119.3 . . ?
C13 C16 H16A 109.5 . . ?
C13 C16 H16B 109.5 . . ?
C13 C16 H16C 109.5 . . ?
H16A C16 H16B 109.5 . . ?
H16A C16 H16C 109.5 . . ?
H16B C16 H16C 109.5 . . ?
loop_
_geom_bond_atom_site_label_1
_geom_bond_atom_site_label_2
_geom_bond_distance
_geom_bond_site_symmetry_2
_geom_bond_publ_flag
F1 C2 1.346(2) . ?
F2 C3 1.339(2) . ?
F3 C4 1.3515(19) . ?
O1 C9 1.2221(19) . ?
C1 H1 0.9500 . ?
C1 C2 1.365(3) . ?
C1 C6 1.391(2) . ?
C2 C3 1.366(3) . ?
C3 C4 1.370(2) . ?
C4 C5 1.361(2) . ?
C5 H5 0.9500 . ?
C5 C6 1.393(2) . ?
C6 C7 1.460(2) . ?
C7 H7 0.9500 . ?
C7 C8 1.315(2) . ?
C8 H8 0.9500 . ?
C8 C9 1.472(2) . ?
C9 C10 1.485(2) . ?
C10 C11 1.383(2) . ?
C10 C15 1.380(2) . ?
C11 H11 0.9500 . ?
C11 C12 1.375(3) . ?
C12 H12 0.9500 . ?
C12 C13 1.373(3) . ?
C13 C14 1.378(3) . ?
C13 C16 1.507(3) . ?
C14 H14 0.9500 . ?
C14 C15 1.371(3) . ?
C15 H15 0.9500 . ?
C16 H16A 0.9800 . ?
C16 H16B 0.9800 . ?
C16 H16C 0.9800 . ?
loop_
_geom_hbond_atom_site_label_D
_geom_hbond_atom_site_label_H
_geom_hbond_atom_site_label_A
_geom_hbond_distance_DH
_geom_hbond_distance_HA
_geom_hbond_distance_DA
_geom_hbond_angle_DHA
_geom_hbond_site_symmetry_A
C1 H1 O1 0.95 2.42 3.289(2) 152.8 2_556
C5 H5 F3 0.95 2.62 3.560(2) 170.5 2_766
loop_
_geom_torsion_atom_site_label_1
_geom_torsion_atom_site_label_2
_geom_torsion_atom_site_label_3
_geom_torsion_atom_site_label_4
_geom_torsion
_geom_torsion_site_symmetry_1
_geom_torsion_site_symmetry_2
_geom_torsion_site_symmetry_3
_geom_torsion_site_symmetry_4
_geom_torsion_publ_flag
F1 C2 C3 F2 0.6(3) . . . . ?
F1 C2 C3 C4 -178.99(16) . . . . ?
F2 C3 C4 F3 -1.0(3) . . . . ?
F2 C3 C4 C5 179.55(17) . . . . ?
F3 C4 C5 C6 -178.83(15) . . . . ?
O1 C9 C10 C11 178.24(19) . . . . ?
O1 C9 C10 C15 0.0(3) . . . . ?
C1 C2 C3 F2 -179.83(17) . . . . ?
C1 C2 C3 C4 0.6(3) . . . . ?
C1 C6 C7 C8 -179.48(18) . . . . ?
C2 C1 C6 C5 -0.2(3) . . . . ?
C2 C1 C6 C7 -179.06(16) . . . . ?
C2 C3 C4 F3 178.59(17) . . . . ?
C2 C3 C4 C5 -0.8(3) . . . . ?
C3 C4 C5 C6 0.6(3) . . . . ?
C4 C5 C6 C1 0.0(3) . . . . ?
C4 C5 C6 C7 178.77(16) . . . . ?
C5 C6 C7 C8 1.7(3) . . . . ?
C6 C1 C2 F1 179.49(16) . . . . ?
C6 C1 C2 C3 0.0(3) . . . . ?
C6 C7 C8 C9 -178.90(17) . . . . ?
C7 C8 C9 O1 2.0(3) . . . . ?
C7 C8 C9 C10 -178.70(17) . . . . ?
C8 C9 C10 C11 -1.1(3) . . . . ?
C8 C9 C10 C15 -179.37(18) . . . . ?
C9 C10 C11 C12 -178.23(19) . . . . ?
C9 C10 C15 C14 178.57(19) . . . . ?
C10 C11 C12 C13 -0.1(4) . . . . ?
C11 C10 C15 C14 0.2(3) . . . . ?
C11 C12 C13 C14 -0.2(4) . . . . ?
C11 C12 C13 C16 179.0(2) . . . . ?
C12 C13 C14 C15 0.4(4) . . . . ?
C13 C14 C15 C10 -0.5(4) . . . . ?
C15 C10 C11 C12 0.1(3) . . . . ?
C16 C13 C14 C15 -178.7(2) . . . . ?
loop_
_refln_index_h
_refln_index_k
_refln_index_l
_refln_F_squared_meas
_refln_F_squared_sigma
-1 0 0 901.91 25
-1 0 0 861.21 24.9
-1 0 0 985.2 25.4
-1 0 0 895.91 24.6
1 0 0 892.31 25.3
1 0 0 892.31 24.8
1 0 0 883.71 24.8
1 0 0 909.81 24.9
1 0 0 921.41 25
-2 0 0 703.03 19.9
-2 0 0 697.93 19.6
-2 0 0 685.93 20.1
2 0 0 684.73 19.8
2 0 0 671.83 19.5
2 0 0 658.93 19.4
2 0 0 676.93 20.3
2 0 0 677.83 19.6
-3 0 0 107.99 5
-3 0 0 108.09 4.7
3 0 0 112.09 5.1
3 0 0 106.39 4.7
3 0 0 114.49 4.9
3 0 0 101.79 5.3
3 0 0 103.69 4.8
-4 0 0 23.2 3.1
-4 0 0 21.9 2.6
4 0 0 22.7 2.9
4 0 0 23.8 3.1
4 0 0 26.3 3.1
4 0 0 25.9 3
4 0 0 26 3.3
-5 0 0 30.3 3.3
-5 0 0 32.1 4
5 0 0 29.1 3.9
5 0 0 27.7 4
5 0 0 34.9 4
5 0 0 37.4 3.5
-6 0 0 11.8 3
6 0 0 12.8 3
6 0 0 14.8 3.4
6 0 0 8 3
6 0 0 8.8 2.2
-7 0 0 0.1 1.9
7 0 0 0 1.9
7 0 0 2.1 2.7
7 -1 0 -2.1 1.5
7 -1 0 5 3
-7 1 0 -1.1 1.5
6 -1 0 136.49 8.2
6 -1 0 126.29 7.7
6 -1 0 148.09 8
6 -1 0 139.49 7
-6 1 0 141.69 8.4
5 -1 0 5 2.1
5 -1 0 4.7 2.4
5 -1 0 4.2 2.3
5 -1 0 4.5 1.4
5 -1 0 5.1 2
-5 1 0 1 1.6
4 -1 0 1.7 1.1
4 -1 0 1.1 1.4
4 -1 0 2.4 1.7
4 -1 0 2.6 1.6
4 -1 0 1.8 1.6
-4 1 0 1 1.1
3 -1 0 148.59 6.5
3 -1 0 142.29 5.3
3 -1 0 142.19 6.4
3 -1 0 141.69 6.3
3 -1 0 147.89 5.6
3 -1 0 139.19 5.5
-3 1 0 149.99 6.6
-3 1 0 140.59 5.1
2 -1 0 80.69 3
2 -1 0 77.09 3.2
2 -1 0 83.79 3.7
2 -1 0 77.09 3.7
2 -1 0 75.89 3.8
2 -1 0 80.79 3.3
-2 1 0 81.59 3.9
-2 1 0 87.49 4.1
1 -1 0 296.17 9.1
1 -1 0 300.67 8.9
1 -1 0 311.67 9
-1 1 0 297.77 9.1
-1 1 0 302.17 8.8
-1 1 0 318.47 9.4
-1 1 0 305.27 8.7
-1 -1 0 1809.92 50.19
-1 -1 0 1836.62 49.9
-1 -1 0 1833.82 50.39
1 1 0 1880.91 50.39
1 1 0 1821.62 50.39
1 1 0 1809.52 50.29
-2 -1 0 36.5 2.3
-2 -1 0 37.7 2.6
-2 -1 0 38.7 2.3
-2 -1 0 35.8 2.4
2 1 0 38.6 2.7
2 1 0 35.4 2.7
2 1 0 41.4 2.8
2 1 0 37.3 2.3
-3 -1 0 206.68 9.9
-3 -1 0 216.58 8.1
-3 -1 0 207.68 6.9
-3 -1 0 201.88 6.8
-3 -1 0 206.48 7.7
3 1 0 209.38 8
3 1 0 210.28 7.8
3 1 0 211.38 8.1
3 1 0 219.78 8.3
-4 -1 0 312.67 11.5
-4 -1 0 307.77 11.4
4 1 0 325.67 12.5
4 1 0 312.17 11.5
4 1 0 320.77 11.5
4 1 0 325.37 12
-5 -1 0 170.38 9
-5 -1 0 177.58 8.2
-5 -1 0 172.78 8.2
5 1 0 150.38 8.4
5 1 0 184.38 9.3
5 1 0 170.98 9.2
5 1 0 192.48 8.6
5 1 0 176.08 8.4
-6 -1 0 3 1.7
-6 -1 0 -1.8 1.5
6 1 0 1.1 2.3
6 1 0 -1.2 2.8
6 1 0 0.5 1.9
6 1 0 -1.7 1.6
-7 2 0 3.8 2.4
6 -2 0 -2.8 2.7
6 -2 0 11.9 3.3
6 -2 0 6.1 1.4
-6 2 0 4 2
5 -2 0 73.69 5
5 -2 0 68.49 5
5 -2 0 64.89 5.1
5 -2 0 65.89 5.3
5 -2 0 65.99 3.4
-5 2 0 57.09 5
4 -2 0 2.2 1.3
4 -2 0 1 1.4
4 -2 0 3.6 1.9
4 -2 0 4.6 2.1
4 -2 0 2.8 0.9
4 -2 0 6.4 2.1
-4 2 0 1.3 1.1
-4 2 0 3 1.8
3 -2 0 104.49 4.7
3 -2 0 107.69 4.9
3 -2 0 108.89 3.6
3 -2 0 104.79 5.2
3 -2 0 110.09 5.3
3 -2 0 107.09 5.5
-3 2 0 110.19 5.6
-3 2 0 106.49 5.3
2 -2 0 762.32 22.5
2 -2 0 784.72 22.3
2 -2 0 758.62 22.1
-2 2 0 756.82 21.4
-2 2 0 754.62 23
-2 2 0 786.62 22.7
1 -2 0 8319.07 229.38
-1 2 0 8261.37 229.38
0 2 0 9999 275.87
-1 -2 0 2142.59 59.79
-1 -2 0 2223.18 59.99
1 2 0 2104.79 59.69
1 2 0 2169.78 59.89
1 2 0 2154.08 59.89
-2 -2 0 -0.4 1.3
-2 -2 0 2 0.9
-2 -2 0 -0.6 0.8
-2 -2 0 2.2 1.2
2 2 0 0.9 1.2
2 2 0 4.1 2
2 2 0 0 1
-3 -2 0 9.7 1.8
-3 -2 0 9.7 1.6
-3 -2 0 7.9 1.7
-3 -2 0 9.5 1.9
3 2 0 10.2 2.2
3 2 0 7.3 1.9
3 2 0 10.6 2.5
-4 -2 0 11.8 2.3
-4 -2 0 12.2 2.2
-4 -2 0 14.8 2.2
-4 -2 0 11.8 2.4
-4 -2 0 13.7 1.9
4 2 0 19.7 3.7
4 2 0 12.7 2.4
-5 -2 0 6 1.8
-5 -2 0 1.1 1.4
-5 -2 0 0.7 1.5
5 2 0 4.7 2.2
5 2 0 1.6 2.1
5 2 0 5.7 2.1
5 2 0 5.3 3.2
-6 -2 0 3.2 2.1
6 2 0 0.8 3.9
6 2 0 1.3 2.1
6 2 0 0.4 2
6 -3 0 91.59 6.9
6 -3 0 97.09 6.7
-6 3 0 95.09 7.2
5 -3 0 4.2 2.4
5 -3 0 5 2.2
5 -3 0 -0.9 1.5
-5 3 0 4.9 1.9
-5 3 0 0.7 1.5
4 -3 0 21.6 2.7
4 -3 0 25.3 3.1
4 -3 0 24.2 3.6
4 -3 0 18.8 2.7
-4 3 0 22.7 3.3
-4 3 0 19.8 3.1
3 -3 0 4.1 2
3 -3 0 2.9 1.2
3 -3 0 5.2 1.6
-3 3 0 3 1.3
-3 3 0 4 1.7
2 -3 0 141.49 5.8
2 -3 0 141.69 6.1
2 -3 0 146.09 6.4
-2 3 0 143.89 5.5
-2 3 0 152.48 6.6
-2 3 0 141.59 5.5
1 -3 0 157.28 6.7
1 -3 0 151.38 6.2
1 -3 0 149.49 5.2
-1 3 0 147.29 5.2
-1 3 0 144.09 6.1
-1 3 0 153.48 6.2
0 -3 0 917.31 27.9
0 -3 0 999.7 28.3
0 -3 0 955.2 27.3
0 3 0 961.6 28.1
0 3 0 940.91 27.3
0 3 0 938.51 27.9
-1 -3 0 44.6 3.2
-1 -3 0 52.59 4
-1 -3 0 49.7 3.5
1 3 0 52.59 3.5
1 3 0 51.49 3.7
1 3 0 52.89 3.8
-2 -3 0 1.8 1.1
-2 -3 0 1.4 1.7
-2 -3 0 1.5 1.3
2 3 0 -1.1 1
2 3 0 2.9 2.1
2 3 0 1.5 1.5
-3 -3 0 0.2 1.1
-3 -3 0 -0.5 1.6
-3 -3 0 1.9 1.6
-3 -3 0 1.5 1.3
3 3 0 -0.9 2.3
3 3 0 -0.6 2.3
3 3 0 -2.1 1.1
-4 -3 0 4.7 2.1
-4 -3 0 9.6 2.1
-4 -3 0 6.9 1.8
-4 -3 0 6 2
-4 -3 0 4.2 1.7
4 3 0 3.5 2.6
4 3 0 5.2 2.2
4 3 0 7.2 3.3
-5 -3 0 0.7 1.4
-5 -3 0 1.2 1.8
-5 -3 0 0.5 1.7
5 3 0 0.8 2.2
5 3 0 -0.5 4
5 3 0 5.1 2.3
5 3 0 0.5 1.7
-6 -3 0 7.3 2.5
-6 -3 0 7.4 2.6
6 3 0 12.1 3.2
6 -4 0 -1.5 3.2
-6 4 0 2.3 2.1
5 -4 0 -0.8 2.3
-5 4 0 4.1 2.1
4 -4 0 24.5 4.6
4 -4 0 18.5 2.8
4 -4 0 24.1 3.3
4 -4 0 32.2 4.5
-4 4 0 24 3.5
3 -4 0 2.5 1.1
3 -4 0 3.7 2.5
-3 4 0 2.4 1.9
-3 4 0 2.6 1.2
2 -4 0 444.06 12.6
2 -4 0 439.56 14.1
2 -4 0 425.26 14.8
-2 4 0 417.16 14.1
-2 4 0 422.76 14.1
1 -4 0 2177.58 62.29
1 -4 0 2152.78 61.89
1 -4 0 2240.38 60.59
-1 4 0 2165.88 61.59
-1 4 0 2235.48 61.79
-1 4 0 2177.18 60.49
0 -4 0 10 2.1
0 -4 0 8.9 1.5
0 -4 0 17.5 3.1
0 4 0 14.7 2.6
0 4 0 13.7 2.7
0 4 0 8.2 1.5
-1 -4 0 468.85 15.7
-1 -4 0 448.26 15.6
-1 -4 0 426.66 16.3
1 4 0 431.16 15.5
1 4 0 450.55 15.6
1 4 0 447.26 15.1
-2 -4 0 25.3 3.3
-2 -4 0 34.2 4.4
-2 -4 0 26.6 3.1
2 4 0 27.5 3.6
2 4 0 26.2 3.7
2 4 0 26.1 3.9
-3 -4 0 31.4 3
-3 -4 0 29.4 3.8
-3 -4 0 32.2 3.7
-3 -4 0 33.5 4.2
3 4 0 35.1 4.3
3 4 0 28.5 4.5
3 4 0 28.3 4.8
-4 -4 0 18.2 3
-4 -4 0 22.8 3.6
-4 -4 0 23.8 3.4
-4 -4 0 21.2 2.8
4 4 0 19.9 3.8
4 4 0 31 5.2
4 4 0 15.3 2.8
-5 -4 0 15.9 2.6
-5 -4 0 10.6 2.2
5 4 0 13.8 3.4
5 4 0 14.6 3.1
5 4 0 15.6 6.3
-6 -4 0 5 2.1
-6 -4 0 3.1 2.4
6 4 0 3.9 2.6
6 -5 0 0.1 3.6
6 -5 0 3.1 3.8
-6 5 0 1.4 2.6
5 -5 0 2.4 3.2
5 -5 0 2.4 2.2
5 -5 0 2.4 3.2
-5 5 0 -1.4 1.7
4 -5 0 -0.3 1.3
4 -5 0 2.4 1.8
4 -5 0 -0.6 2.9
-4 5 0 0.2 1.6
3 -5 0 -1 1.1
3 -5 0 -0.3 2.6
3 -5 0 -0.1 1.6
-3 5 0 -0.4 1.8
-3 5 0 -0.2 1.4
2 -5 0 95.19 4.2
2 -5 0 98.19 6.1
2 -5 0 102.29 5.2
2 -5 0 95.99 7.1
-2 5 0 98.99 5.8
-2 5 0 104.39 5.8
-2 5 0 103.49 4.4
1 -5 0 24.9 2.6
1 -5 0 22.1 3.4
-1 5 0 19.8 3.2
-1 5 0 13.3 1.9
0 -5 0 133.69 6.8
0 -5 0 143.69 7.9
0 -5 0 134.69 7.2
0 5 0 134.39 7.3
0 5 0 136.79 6.4
0 5 0 134.69 7.4
-1 -5 0 55.99 4.8
-1 -5 0 60.59 5.5
-1 -5 0 59.29 4.3
1 5 0 46.1 4.9
1 5 0 57.99 4.7
1 5 0 61.09 5.4
-2 -5 0 11.6 2.8
-2 -5 0 6.3 1.8
-2 -5 0 16 3.6
2 5 0 17.5 4
2 5 0 11.8 2.6
2 5 0 10.8 3.1
-3 -5 0 23.8 4.1
-3 -5 0 21.3 2.7
-3 -5 0 12.9 3.3
-3 -5 0 19.9 3.4
3 5 0 20.7 4.1
3 5 0 24.2 5
3 5 0 21.3 3.2
-4 -5 0 2.9 1.9
-4 -5 0 1.8 1.4
-4 -5 0 -2.2 2.1
4 5 0 0.4 2.2
4 5 0 0.5 1.9
-5 -5 0 9 2.1
-5 -5 0 3.9 2.3
-5 -5 0 3.6 2.2
-5 -5 0 10 2.7
5 5 0 6 3.2
5 5 0 6.1 2.7
-6 6 0 5.1 2.7
5 -6 0 -0.2 2.5
5 -6 0 -1.5 3.5
-5 6 0 -1.9 2.1
4 -6 0 -2.6 3.1
4 -6 0 0.6 1.6
4 -6 0 3.4 2.2
-4 6 0 4 2.4
3 -6 0 38.4 3.7
3 -6 0 52.89 5.3
-3 6 0 50.39 4.1
-3 6 0 45.7 4.3
-3 6 0 51.49 5.3
2 -6 0 48 5.5
2 -6 0 54.09 3.9
2 -6 0 52.39 3.4
-2 6 0 53.39 5.3
-2 6 0 51.89 3.6
-2 6 0 49 5
1 -6 0 -0.4 1.9
1 -6 0 0 1.4
1 -6 0 -0.7 3
-1 6 0 1.9 2.4
-1 6 0 1 1.4
-1 6 0 1.5 2.2
0 -6 0 20 4.3
0 -6 0 17.7 2.6
0 -6 0 15.2 3.3
0 6 0 20.4 3.9
0 6 0 18.9 3.7
0 6 0 13.7 2.5
-1 -6 0 64.09 4.9
-1 -6 0 55.19 6.1
-1 -6 0 72.39 5.8
1 6 0 65.99 5.3
1 6 0 70.89 6.3
1 6 0 65.19 6.3
-2 -6 0 12.4 2.9
-2 -6 0 20 4.4
2 6 0 12.5 5.4
2 6 0 7.1 3.1
2 6 0 7.7 2.3
-3 -6 0 3.7 2.2
-3 -6 0 3.6 1.8
-3 -6 0 2 2.4
3 6 0 8.5 5.6
3 6 0 2 2
3 6 0 7.1 3.1
-4 -6 0 10.7 2.5
-4 -6 0 12.4 3.2
4 6 0 19.6 4.3
4 6 0 14.4 3.1
-5 -6 0 3.5 2.1
-5 -6 0 -2.5 2.4
-5 -6 0 6.6 2.9
5 6 0 2.5 3
5 6 0 0 2.3
5 -7 0 -0.6 4.5
-5 7 0 -1.5 2
4 -7 0 4.9 3
4 -7 0 -3.7 3.5
-4 7 0 0.1 2.4
3 -7 0 9.8 1.3
3 -7 0 3.5 3.9
3 -7 0 13 3.2
3 -7 0 19.6 3.9
-3 7 0 16.1 3.9
2 -7 0 2.7 2.5
2 -7 0 0.9 1.4
2 -7 0 -0.4 1
2 -7 0 1.9 3.2
-2 7 0 1.9 1.3
-2 7 0 1.2 2.5
-2 7 0 2.4 2.1
1 -7 0 41.8 3.7
1 -7 0 49.2 5.4
-1 7 0 40.5 5.2
-1 7 0 46.8 4.2
-1 7 0 40.2 5.3
0 -7 0 50.89 4.5
0 -7 0 53.69 6.6
0 7 0 58.29 5.9
0 7 0 47.9 4.9
0 7 0 53.59 6.6
-1 -7 0 7.5 2.6
-1 -7 0 3.1 2.6
-1 -7 0 4.2 3.3
1 7 0 7.8 2.5
1 7 0 4.4 3.7
1 7 0 8.5 3.3
-2 -7 0 1.5 2.3
-2 -7 0 0.6 2.7
2 7 0 -2.2 2.5
2 7 0 0 1.8
-3 -7 0 -0.3 2.5
-3 -7 0 1.6 2
3 7 0 3.6 4.3
3 7 0 2.1 2.3
-4 -7 0 1.7 2.9
-4 -7 0 -0.2 1.5
4 7 0 2 2.8
4 7 0 -0.3 2.2
4 -8 0 5.2 4.9
-4 8 0 3.3 2.6
3 -8 0 -0.6 1
3 -8 0 0.1 4.8
3 -8 0 -0.8 2.8
-3 8 0 2.5 2.4
-3 8 0 -2.3 2.8
-3 8 0 -1.9 3.5
2 -8 0 2.2 1.6
2 -8 0 3 2
2 -8 0 1.2 4
-2 8 0 1.5 1.6
-2 8 0 0.3 2.8
-2 8 0 3.2 2.6
1 -8 0 34.1 3.8
-1 8 0 30.9 4.1
-1 8 0 37.2 5.4
-1 8 0 32 5.1
0 -8 0 1.6 1.8
0 -8 0 -2.2 3
0 8 0 3.3 2
0 8 0 2.5 2.8
-1 -8 0 2 4.8
1 8 0 -0.5 2.7
1 8 0 6.1 2.6
-2 -8 0 -1.2 3.3
2 8 0 0.1 2.6
2 8 0 2.1 2.3
-3 -8 0 -1.4 1.8
-3 -8 0 -0.4 3
3 8 0 3 3.3
3 8 0 -3 2.2
3 -9 0 -1.2 1.2
3 -9 0 -1 4.6
-3 9 0 1.3 2.6
2 -9 0 3.9 4.1
2 -9 0 -0.6 1.5
-2 9 0 2.8 2.7
-2 9 0 -0.5 1.9
1 -9 0 4.2 4.3
1 -9 0 16.2 3
-1 9 0 18.3 3.4
0 -9 0 -1.4 3.5
0 9 0 3.4 3
0 9 0 0.1 2.3
-1 -9 0 -1.2 3.9
1 9 0 0.6 2.7
1 9 0 -1.7 2.1
-2 -9 0 2.3 3.9
2 9 0 7.5 3.9
2 9 0 6.2 2.9
-1 10 0 3 3.1
-1 10 0 -2.4 2.5
0 10 0 -4.9 2.3
0 10 0 -0.4 3.1
0 10 -1 3.5 3.5
-1 10 -1 1.4 2.3
-1 10 -1 2.1 3.2
2 9 -1 9.6 3.5
2 9 -1 8.9 3.8
-2 -9 1 0.7 3.4
1 9 -1 2.4 3
1 9 -1 -1.5 2.1
-1 -9 1 1.9 3.9
0 9 -1 5.1 2.5
0 9 -1 2.7 3.2
0 -9 1 0.1 3.6
-1 9 -1 4.4 4.1
-1 9 -1 6.2 2.4
1 -9 1 0.6 2.1
1 -9 1 4.7 3.6
-2 9 -1 -1 1.5
-2 9 -1 4.6 2.9
2 -9 1 -5.9 3.8
2 -9 1 -1.3 1.5
2 -9 1 -4 1.9
-3 9 -1 -0.9 2.6
3 -9 1 1 5.1
3 8 -1 3.3 3.3
3 8 -1 1.3 2.5
-3 -8 1 -2.3 2.6
-3 -8 1 -3.7 1.8
2 8 -1 7.6 3.5
2 8 -1 2.8 2.3
-2 -8 1 4.3 3.9
1 8 -1 0.2 2
1 8 -1 2.7 3
-1 -8 1 3.9 2.2
0 8 -1 14.1 3.9
0 8 -1 11.4 2.8
0 -8 1 11.5 4.2
-1 8 -1 -1.2 3.4
-1 8 -1 0.8 1.8
-1 8 -1 3.5 2.6
1 -8 1 2.9 1.6
1 -8 1 -0.4 3.4
-2 8 -1 -4.4 2.8
-2 8 -1 0.1 1.4
-2 8 -1 1.5 2.6
2 -8 1 -1.6 4.3
2 -8 1 1.8 1.7
2 -8 1 3.7 1.5
-3 8 -1 -2.4 2.7
-3 8 -1 3.5 2.4
3 -8 1 -0.2 1.6
-4 8 -1 -1 2.4
-4 8 -1 0.5 2.3
-4 8 -1 0.5 2.4
4 -8 1 -7.2 4.2
4 7 -1 -1.9 2
4 7 -1 4.4 3.1
-4 -7 1 -1.1 2.5
-4 -7 1 -0.1 1.5
-4 -7 1 2.8 2.7
3 7 -1 21.8 3.7
3 7 -1 34 8.4
-3 -7 1 37.4 5.1
-3 -7 1 24.8 3.5
2 7 -1 8.1 3.2
2 7 -1 11.9 2.9
-2 -7 1 13.3 3.3
-2 -7 1 9.3 2.4
-2 -7 1 5.3 3.5
1 7 -1 17.4 4.5
1 7 -1 15.2 3.8
1 7 -1 12.8 2.8
-1 -7 1 21.6 4
-1 -7 1 14 2.5
-1 -7 1 14.1 4
0 7 -1 184.98 10
0 7 -1 174.98 8.6
0 7 -1 189.58 12.2
0 -7 1 175.68 8.5
-1 7 -1 1.2 2.2
-1 7 -1 -0.1 1.3
-1 7 -1 2 2.7
1 -7 1 -1.2 1.9
1 -7 1 -0.4 1.2
1 -7 1 2.1 3.5
-2 7 -1 -1 2.5
-2 7 -1 3.2 1.4
-2 7 -1 1.8 2.3
2 -7 1 -1.2 1.1
2 -7 1 -0.5 1.2
2 -7 1 -0.2 2.1
2 -7 1 0.2 3.2
-3 7 -1 3 2.7
-3 7 -1 1.5 2.1
-3 7 -1 3.9 2.6
3 -7 1 -0.2 3.4
3 -7 1 0.2 3.3
3 -7 1 5.8 2.7
3 -7 1 2.4 1.5
-4 7 -1 2.3 2.5
4 -7 1 2.1 2.6
4 -7 1 1.3 4.1
-5 7 -1 1 2.2
5 -7 1 -4.7 4.5
5 6 -1 1 2.5
5 6 -1 -0.8 2.1
-5 -6 1 -0.5 1.6
-5 -6 1 4.9 2.4
-5 -6 1 -3.1 1.3
4 6 -1 2.4 2.6
4 6 -1 -1.9 1.6
-4 -6 1 5.8 2.3
-4 -6 1 1.7 1.5
-4 -6 1 3.3 2.4
3 6 -1 -0.9 2.3
3 6 -1 -3.5 3.3
3 6 -1 0.1 1.8
-3 -6 1 -0.5 2.3
-3 -6 1 1.2 1.8
-3 -6 1 1.9 1.7
2 6 -1 -0.7 1.7
2 6 -1 -3.2 3.3
2 6 -1 -2.3 2.2
-2 -6 1 3.2 2.8
-2 -6 1 -0.7 1.5
-2 -6 1 -3.7 1.7
1 6 -1 7 2.9
1 6 -1 9 2.5
1 6 -1 9.8 3.7
-1 -6 1 13.3 2.9
-1 -6 1 8.3 2.1
-1 -6 1 9.8 3.8
0 6 -1 250.77 10.1
0 6 -1 262.77 11.7
0 6 -1 232.98 11.1
0 -6 1 247.88 11.3
0 -6 1 257.77 10.1
-1 6 -1 14.1 3.3
-1 6 -1 14.2 3.2
-1 6 -1 12.6 2.1
1 -6 1 19.1 3.4
1 -6 1 12.7 1.9
-2 6 -1 6.8 1.4
-2 6 -1 4.1 2.5
-2 6 -1 5.4 2.7
2 -6 1 2.5 3.3
2 -6 1 6.1 1.4
2 -6 1 9.2 2.9
2 -6 1 8.8 1.9
-3 6 -1 -2.1 2
-3 6 -1 2.5 2.2
3 -6 1 3.9 3.7
3 -6 1 3.1 2.5
3 -6 1 3.9 1.6
-4 6 -1 2.8 2.4
4 -6 1 7.1 3.4
4 -6 1 3.9 1.7
4 -6 1 -1.8 3.1
-5 6 -1 10.1 3.1
5 -6 1 8.4 3.1
5 -6 1 -1.8 4
-6 6 -1 5 2.8
5 5 -1 11.6 3.5
5 5 -1 5.1 2.5
-5 -5 1 12.3 2.4
-5 -5 1 6.4 2.2
-5 -5 1 3.7 2.2
-5 -5 1 5.9 2.3
4 5 -1 18.2 3.9
4 5 -1 20.2 4.9
-4 -5 1 23.8 3.8
-4 -5 1 24 3.6
-4 -5 1 18 2.9
3 5 -1 -1.3 1.5
3 5 -1 -1.8 2.6
3 5 -1 -0.3 2.1
-3 -5 1 -1.5 2.1
-3 -5 1 -0.6 1.6
-3 -5 1 1.8 1.6
2 5 -1 49.8 4.8
2 5 -1 54.29 5.3
2 5 -1 45.8 5.1
-2 -5 1 56.19 5.5
-2 -5 1 51.79 4.5
-2 -5 1 49.6 4.6
1 5 -1 415.16 14.6
1 5 -1 395.96 15.1
1 5 -1 405.86 15.3
-1 -5 1 403.56 14.3
-1 -5 1 424.16 15.6
-1 -5 1 394.26 14.9
0 5 -1 104.19 6.6
0 5 -1 111.29 6.5
0 5 -1 110.29 5.7
0 -5 1 105.69 6.3
0 -5 1 112.99 7
0 -5 1 109.99 6.2
-1 5 -1 26.8 3.8
-1 5 -1 23.2 3.8
-1 5 -1 24.2 2.6
1 -5 1 24 2.5
1 -5 1 20.7 3.5
1 -5 1 31.4 4.6
-2 5 -1 21.9 3.7
-2 5 -1 29.5 2.3
2 -5 1 22.7 4.3
2 -5 1 25.8 2.1
2 -5 1 27 3.8
2 -5 1 28.8 2.7
-3 5 -1 0.9 1.6
-3 5 -1 -1.4 1.4
-3 5 -1 4.2 2.1
3 -5 1 0.7 1
3 -5 1 2.3 1.9
3 -5 1 -3.1 2.7
-4 5 -1 2.6 1.9
4 -5 1 2.5 3.1
4 -5 1 2.2 3.1
4 -5 1 -1 1.5
4 -5 1 0.5 1.7
-5 5 -1 -1.6 1.5
5 -5 1 -0.7 2.2
5 -5 1 2.8 3.3
-6 5 -1 10.3 3.3
6 -5 1 1.3 3.9
6 4 -1 2.3 2.5
6 4 -1 7.8 2.9
-6 -4 1 3.8 2.6
-6 -4 1 7.5 2.4
5 4 -1 24.5 4.3
5 4 -1 15.6 4.8
5 4 -1 17.3 3.5
-5 -4 1 18.7 2.8
-5 -4 1 18.7 3.4
-5 -4 1 22.7 2.7
4 4 -1 8.3 3.9
4 4 -1 5.8 2
4 4 -1 10.5 3.1
-4 -4 1 5.8 1.9
-4 -4 1 8.6 2.1
-4 -4 1 14.6 3.2
-4 -4 1 10 2.9
3 4 -1 28.9 4.7
3 4 -1 31.3 4.4
3 4 -1 30.1 4.2
-3 -4 1 26.9 3
-3 -4 1 25.9 3.3
-3 -4 1 28.7 3.9
-3 -4 1 30.9 3.5
2 4 -1 126.69 6.7
2 4 -1 117.59 6.9
2 4 -1 129.29 6.9
-2 -4 1 119.39 6.4
-2 -4 1 122.89 6.4
1 4 -1 620.74 20.1
1 4 -1 620.34 19.6
1 4 -1 639.64 20.5
-1 -4 1 636.64 20.1
-1 -4 1 547.05 23
0 4 -1 212.18 8.8
0 4 -1 209.48 7.9
0 4 -1 203.38 8.7
0 -4 1 210.68 8.8
0 -4 1 226.58 9.3
0 -4 1 218.98 7.9
-1 4 -1 95.59 5.6
-1 4 -1 94.49 5.6
-1 4 -1 99.39 4.3
1 -4 1 109.49 4.3
1 -4 1 92.09 5.6
1 -4 1 104.89 6.5
-2 4 -1 208.38 8.2
-2 4 -1 197.58 8
2 -4 1 195.78 9.9
2 -4 1 209.88 7.6
2 -4 1 198.48 6.1
2 -4 1 182.58 9.2
-3 4 -1 28.1 2.8
-3 4 -1 28.2 3.6
-3 4 -1 27.1 2.7
3 -4 1 28.3 4.5
3 -4 1 30.2 3.5
3 -4 1 31.3 2.9
-4 4 -1 0.8 1.6
4 -4 1 -1.3 2.5
4 -4 1 -0.9 1.7
4 -4 1 -2.2 2
4 -4 1 0.6 1.3
-5 4 -1 21.1 3.2
-5 4 -1 23.4 3.7
5 -4 1 15.5 3.5
5 -4 1 22 3.9
-6 4 -1 2.1 1.9
6 -4 1 -3.1 2.9
6 -4 1 2.2 4.8
6 3 -1 -0.8 2.1
-6 -3 1 3.6 2.3
-6 -3 1 -0.4 1.6
5 3 -1 -1.4 1.8
5 3 -1 5 2
5 3 -1 -1.1 1.8
5 3 -1 -2.2 3
-5 -3 1 1.6 1.4
-5 -3 1 -2.6 1.5
-5 -3 1 0.2 1.6
4 3 -1 78.09 6.2
4 3 -1 76.29 5.8
4 3 -1 75.09 5.6
-4 -3 1 77.69 4.7
-4 -3 1 76.29 5.4
-4 -3 1 79.49 5.4
-4 -3 1 70.69 4.2
-4 -3 1 72.99 4.3
3 3 -1 -1.5 2.1
3 3 -1 -0.3 1.5
3 3 -1 -1.7 1.1
-3 -3 1 0.1 1
-3 -3 1 -0.9 1.1
-3 -3 1 -2.2 1.1
-3 -3 1 -1.4 1.6
2 3 -1 75.29 4.8
2 3 -1 75.29 4.8
2 3 -1 74.69 4.8
-2 -3 1 72.49 4.3
-2 -3 1 75.49 4.7
-2 -3 1 72.49 4.6
1 3 -1 503.95 16
1 3 -1 492.45 15.9
1 3 -1 491.65 15.6
-1 -3 1 501.45 15.9
-1 -3 1 483.45 15.5
-1 -3 1 476.15 15.7
0 3 -1 303.27 10.7
0 3 -1 313.47 10.1
0 3 -1 311.87 10.8
0 -3 1 317.87 11
0 -3 1 306.27 10
0 -3 1 310.07 10.7
-1 3 -1 953.2 28
-1 3 -1 950.7 28.1
-1 3 -1 912.61 26.7
1 -3 1 1036.2 28.7
1 -3 1 943.31 28.2
1 -3 1 969.3 26.8
-2 3 -1 44 3
-2 3 -1 42.5 3.1
-2 3 -1 48.5 3.4
2 -3 1 45.4 3.8
2 -3 1 43.9 3.3
2 -3 1 42.9 2.7
-3 3 -1 4.2 1.2
-3 3 -1 3.2 1.6
-3 3 -1 3.6 1.1
3 -3 1 3.2 2
3 -3 1 2.3 1.5
3 -3 1 1.5 1
-4 3 -1 0.9 1.3
-4 3 -1 0.4 1.4
4 -3 1 2 2.2
4 -3 1 5 2.1
4 -3 1 -0.5 1
-5 3 -1 17.7 3.5
-5 3 -1 15.3 2.8
5 -3 1 19.4 3.6
5 -3 1 22.2 3.7
-6 3 -1 83.29 7
6 -3 1 102.39 7.4
6 -3 1 92.19 7.1
6 2 -1 7.3 2.5
6 2 -1 6.8 2.2
6 2 -1 6.4 5.4
-6 -2 1 9.8 3.8
-6 -2 1 9.1 2.8
5 2 -1 2.1 1.8
5 2 -1 2.2 2.1
5 2 -1 -3 2.7
-5 -2 1 1.2 1.6
-5 -2 1 -0.9 1.1
-5 -2 1 1.1 1.4
4 2 -1 29.4 3.8
4 2 -1 23.3 3.5
4 2 -1 29.7 4.1
-4 -2 1 30.7 3.5
-4 -2 1 30.1 3.5
-4 -2 1 28.6 3.1
3 2 -1 140.49 6.7
3 2 -1 143.59 7.1
3 2 -1 129.19 6.2
-3 -2 1 133.29 5.3
-3 -2 1 136.29 6.3
-3 -2 1 133.89 6.3
-3 -2 1 129.19 5.8
-3 -2 1 132.29 5.4
2 2 -1 451.65 14.3
2 2 -1 452.15 14.4
2 2 -1 442.06 14.2
-2 -2 1 429.96 13.7
-2 -2 1 442.06 14.3
-2 -2 1 435.46 13.6
-2 -2 1 432.76 13.7
1 2 -1 596.74 17.7
1 2 -1 595.34 17.8
1 2 -1 601.34 17.9
-1 -2 1 583.14 17.7
-1 -2 1 588.74 17.7
-1 -2 1 582.94 17.7
0 2 -1 2104.09 58.59
0 2 -1 2156.98 58.19
0 2 -1 2077.69 58.59
0 -2 1 2109.09 58.59
0 -2 1 2157.18 58.09
0 -2 1 2147.69 58.79
-1 2 -1 3731.63 101.39
-1 2 -1 3772.52 102.49
1 -2 1 3694.83 102.59
1 -2 1 3736.53 101.39
1 -2 1 3895.01 101.99
-2 2 -1 128.49 4.9
-2 2 -1 131.59 4.9
-2 2 -1 129.89 5.2
-2 2 -1 139.59 5.5
2 -2 1 129.29 5.2
2 -2 1 125.79 5.2
2 -2 1 130.99 5.4
-3 2 -1 225.08 8.7
-3 2 -1 240.58 9.1
3 -2 1 237.48 8.9
3 -2 1 222.68 8.4
3 -2 1 231.18 8.7
3 -2 1 239.18 8.7
3 -2 1 226.18 8.6
-4 2 -1 1.9 1.2
4 -2 1 4.6 2
4 -2 1 1.5 1.9
4 -2 1 0.3 1.2
4 -2 1 2.2 0.8
4 -2 1 3.7 2
-5 2 -1 0.9 1.4
5 -2 1 0.6 0.9
5 -2 1 -1.3 2.1
5 -2 1 -3.3 2
5 -2 1 0.1 2.1
5 -2 1 -1 1.3
-6 2 -1 1.8 1.9
6 -2 1 0.5 2.8
6 -2 1 -0.2 2.6
6 -2 1 1.4 1.2
6 -2 1 1.7 2.8
-7 2 -1 -1.3 2.1
7 1 -1 10.1 5
7 1 -1 3.2 2.7
-7 -1 1 3.5 2.3
6 1 -1 -1.9 1.4
6 1 -1 0.3 2
-6 -1 1 -0.7 1.3
-6 -1 1 -1.9 1.6
5 1 -1 14.4 3
5 1 -1 19.2 4.2
5 1 -1 16.2 2.6
5 1 -1 23.3 3.3
5 1 -1 20.4 3.4
-5 -1 1 18.2 2.7
-5 -1 1 12.3 2.3
-5 -1 1 30 3.6
4 1 -1 0.8 1.4
4 1 -1 -0.7 1.5
4 1 -1 1 1.3
4 1 -1 0.3 1.3
4 1 -1 -0.8 1.8
-4 -1 1 -0.5 1.2
-4 -1 1 -1 0.9
-4 -1 1 -1 1.2
3 1 -1 3.5 1.4
3 1 -1 1.1 1.1
3 1 -1 3.9 1.6
3 1 -1 2.3 1.3
-3 -1 1 1 0.9
-3 -1 1 1 1.2
-3 -1 1 2.5 1.2
2 1 -1 174.88 6.3
2 1 -1 170.68 6.6
2 1 -1 174.28 6.2
2 1 -1 177.78 6.3
-2 -1 1 177.78 6.5
-2 -1 1 174.88 6.5
-2 -1 1 171.38 5.7
-2 -1 1 173.78 5.6
-2 -1 1 171.78 6.2
1 1 -1 649.34 18.8
1 1 -1 661.13 18.8
1 1 -1 658.23 19
-1 -1 1 690.03 19.1
-1 -1 1 661.53 18.7
-1 -1 1 646.34 18.7
0 1 -1 29.9 1.6
-1 1 -1 1462.35 39.4
-1 1 -1 1412.46 39.3
-1 1 -1 1428.66 39.4
-1 1 -1 1479.35 39.4
1 -1 1 1383.06 39.3
1 -1 1 1413.36 39.4
1 -1 1 1444.96 39.5
-2 1 -1 0 0.7
-2 1 -1 -0.6 0.7
-2 1 -1 0.2 0.4
-2 1 -1 -0.3 0.7
-2 1 -1 1.1 0.8
2 -1 1 0.2 0.5
2 -1 1 0.5 0.6
2 -1 1 -0.2 0.7
2 -1 1 0.2 0.7
2 -1 1 0 0.9
-3 1 -1 229.38 7.5
-3 1 -1 235.88 8.9
3 -1 1 225.98 8.6
3 -1 1 243.28 9.7
3 -1 1 230.28 8.4
3 -1 1 229.78 8.4
3 -1 1 236.68 7.6
-4 1 -1 7.3 1.6
-4 1 -1 7.7 1.3
4 -1 1 10.3 1.6
4 -1 1 9.9 2.3
4 -1 1 13.1 2.6
4 -1 1 10.5 2.2
4 -1 1 7.4 1.9
-5 1 -1 397.56 15.5
5 -1 1 410.96 15.5
5 -1 1 414.16 15.4
5 -1 1 419.86 14.9
5 -1 1 393.66 15.6
5 -1 1 421.46 13.6
-6 1 -1 7.7 2.5
6 -1 1 1.6 2.6
6 -1 1 10.8 3.2
6 -1 1 8.1 3
-7 1 -1 0.4 2
7 -1 1 -2 1.6
7 -1 1 -2.5 3.7
7 0 -1 2.4 2.4
7 0 -1 -2.4 1.8
-7 0 1 3.3 2.2
6 0 -1 -1.6 2
6 0 -1 0.2 1.9
6 0 -1 -1.4 1.3
6 0 -1 -2.6 2.3
-6 0 1 1.4 1.8
5 0 -1 0.2 1.2
5 0 -1 -0.3 2.5
5 0 -1 -1.5 1.6
5 0 -1 1.5 1.7
5 0 -1 -2.8 1.5
-5 0 1 -1.6 1.1
4 0 -1 17.4 2.6
4 0 -1 13.7 2.3
4 0 -1 18.1 3
4 0 -1 12.7 2
4 0 -1 17.6 2.4
-4 0 1 12.9 2.4
-4 0 1 14.6 2
-4 0 1 15.4 2.3
3 0 -1 95.79 5.2
3 0 -1 86.79 5.7
3 0 -1 101.99 4.6
3 0 -1 97.99 4.1
3 0 -1 102.69 4.2
-3 0 1 101.09 4.8
-3 0 1 97.99 4.4
2 0 -1 1487.05 42.3
2 0 -1 1483.45 41.2
2 0 -1 1555.04 42
2 0 -1 1443.46 42.1
2 0 -1 1514.15 41.2
2 0 -1 1541.05 42.9
-2 0 1 1548.55 42.7
-2 0 1 1517.55 42.1
-2 0 1 1515.65 41.9
-1 0 -1 3206.18 85.29
1 0 1 3120.19 85.09
1 0 1 3120.39 85.39
-2 0 -1 625.74 17.8
-2 0 -1 623.94 17.5
-2 0 -1 597.34 18.1
-2 0 -1 604.24 17.6
-2 0 -1 593.14 17.4
2 0 1 596.54 17.9
2 0 1 609.54 17.7
2 0 1 623.54 17.8
2 0 1 602.64 17.9
2 0 1 594.54 18.1
-3 0 -1 31.5 2.8
-3 0 -1 26 1.9
-3 0 -1 28.3 2.3
-3 0 -1 27.8 2
3 0 1 30.9 2.8
3 0 1 30.8 2.6
3 0 1 29.3 2.7
3 0 1 28.7 2.5
3 0 1 28.7 2.9
-4 0 -1 204.78 7.9
-4 0 -1 213.88 9.1
4 0 1 195.78 8.3
4 0 1 196.68 8.3
4 0 1 202.18 8.7
4 0 1 204.68 8
4 0 1 197.78 8.5
-5 0 -1 64.09 5.4
-5 0 -1 66.89 4.4
5 0 1 59.69 5.5
5 0 1 65.99 5.6
5 0 1 71.39 5.3
5 0 1 73.49 5.9
5 0 1 72.99 4.8
-6 0 -1 7.3 2.3
-6 0 -1 10.1 2.3
6 0 1 7.1 2.8
6 0 1 6.2 3.1
6 0 1 9.6 2.9
6 0 1 4.9 2
-7 0 -1 -0.5 2.2
7 0 1 2 2.5
7 0 1 3.3 4.7
7 -1 -1 0 2.4
7 -1 -1 -2.5 1.5
-7 1 1 0.1 1.9
6 -1 -1 30.5 3.4
6 -1 -1 29.1 6.2
6 -1 -1 35.6 4.7
6 -1 -1 20.7 3.4
-6 1 1 22.7 3.6
5 -1 -1 47.1 4.1
5 -1 -1 54.79 4
5 -1 -1 56.19 3.8
5 -1 -1 71.29 5
5 -1 -1 53.49 4.8
-5 1 1 51.39 4.7
4 -1 -1 67.79 4.8
4 -1 -1 69.09 3.8
4 -1 -1 65.29 3.8
4 -1 -1 73.29 4.5
4 -1 -1 67.39 3.9
-4 1 1 71.79 4.8
3 -1 -1 32.2 2.1
3 -1 -1 31.5 2.8
3 -1 -1 28.9 2.2
3 -1 -1 34.2 3
3 -1 -1 31.2 2.8
-3 1 1 36.2 3.1
-3 1 1 34.4 3.2
2 -1 -1 656.73 20.5
2 -1 -1 669.23 19.3
2 -1 -1 671.93 20
2 -1 -1 671.63 20.2
-2 1 1 776.92 20.9
-2 1 1 660.03 20.6
1 -1 -1 598.34 16.5
1 -1 -1 600.34 16.5
1 -1 -1 574.24 17.1
1 -1 -1 617.14 17.5
1 -1 -1 588.14 16.5
-1 1 1 611.54 17.5
-1 1 1 595.84 17.1
0 1 1 3.6 1
0 1 1 2.6 0.9
0 1 1 2 0.6
-1 -1 -1 694.63 20.1
-1 -1 -1 695.43 20.3
-1 -1 -1 689.63 20.2
-1 -1 -1 702.73 19.6
1 1 1 706.33 20.2
1 1 1 701.33 20.3
1 1 1 734.23 20.5
-2 -1 -1 984.5 28.3
-2 -1 -1 987 28.4
-2 -1 -1 960.8 27.8
-2 -1 -1 966.8 28.2
2 1 1 1007.6 28.7
2 1 1 991.5 27.9
2 1 1 1019.1 28.5
2 1 1 981.5 28.6
-3 -1 -1 30.1 2.6
-3 -1 -1 32.7 3.3
-3 -1 -1 29.7 2.5
-3 -1 -1 31.3 2.7
-3 -1 -1 30.9 2.5
3 1 1 28.3 3
3 1 1 33.7 3.5
3 1 1 32 3.1
3 1 1 33.8 2.6
-4 -1 -1 2.8 1.5
-4 -1 -1 0.4 1.3
-4 -1 -1 0.6 0.8
4 1 1 1.1 1.5
4 1 1 3.9 2.3
4 1 1 2 1.5
4 1 1 0 1.5
4 1 1 1.3 1.8
-5 -1 -1 565.94 20.1
-5 -1 -1 567.24 19
5 1 1 544.35 19.5
5 1 1 559.64 20
5 1 1 572.54 19.1
5 1 1 555.44 19.5
5 1 1 562.74 19
-6 -1 -1 2.8 1.9
-6 -1 -1 2.5 1.7
6 1 1 3 1.9
6 1 1 2 2.4
6 1 1 5.3 2.3
6 1 1 -3.8 4.1
7 -2 -1 0.5 1.4
7 -2 -1 -3.3 3.3
-7 2 1 -0.9 2
6 -2 -1 1.8 1.3
6 -2 -1 2.8 2.5
6 -2 -1 -2.9 2.4
-6 2 1 0.3 1.7
5 -2 -1 2.9 1.9
5 -2 -1 -2 1.4
5 -2 -1 1.7 1
5 -2 -1 0.7 2.1
5 -2 -1 0.4 1.8
-5 2 1 0.5 1.5
4 -2 -1 0.2 1.5
4 -2 -1 -0.1 1.3
4 -2 -1 1.3 0.9
4 -2 -1 1.7 1.4
4 -2 -1 -1.3 1.1
-4 2 1 1.4 1.2
-4 2 1 -0.1 1.6
3 -2 -1 286.07 10.8
3 -2 -1 283.97 8.8
3 -2 -1 287.97 10.3
3 -2 -1 290.57 9.4
3 -2 -1 285.87 9.3
3 -2 -1 292.07 10.5
-3 2 1 293.07 11.7
-3 2 1 297.47 11.1
2 -2 -1 18.4 2
2 -2 -1 15.4 1.7
2 -2 -1 17.1 1.9
-2 2 1 19 2
-2 2 1 19.4 2.3
0 -2 -1 5142.99 145.79
-1 -2 -1 205.78 7.3
-1 -2 -1 198.18 7.4
-1 -2 -1 205.08 7.7
1 2 1 213.58 7.8
1 2 1 206.58 7.4
1 2 1 199.78 7.6
-2 -2 -1 286.27 10.1
-2 -2 -1 287.17 10.1
-2 -2 -1 291.57 9.2
-2 -2 -1 269.37 9.9
2 2 1 290.97 10.5
2 2 1 288.37 10.4
2 2 1 290.87 10.2
-3 -2 -1 113.19 5.7
-3 -2 -1 113.59 5.1
-3 -2 -1 115.69 5.6
-3 -2 -1 113.89 5.4
3 2 1 112.19 8.6
3 2 1 118.89 7.7
3 2 1 112.59 6.1
-4 -2 -1 24.4 3.2
-4 -2 -1 40 4.1
-4 -2 -1 42 3.9
-4 -2 -1 32.6 3.2
-4 -2 -1 28.6 3.1
4 2 1 33.7 4.8
4 2 1 30.9 4.3
-5 -2 -1 59.49 4.6
-5 -2 -1 61.59 5
5 2 1 66.69 5.5
5 2 1 55.99 6.2
5 2 1 61.69 5.4
5 2 1 72.19 5.6
-6 -2 -1 3.2 2.2
6 2 1 6.9 2.6
6 2 1 3.9 2.1
6 2 1 0.8 4.8
6 -3 -1 4.4 2.8
6 -3 -1 0.8 2.8
-6 3 1 1.2 1.9
5 -3 -1 1.3 2.1
5 -3 -1 -2.3 1.2
-5 3 1 -2.9 1.3
-5 3 1 1 1.6
4 -3 -1 7.3 1.8
4 -3 -1 3.4 1.2
4 -3 -1 4.7 2.1
4 -3 -1 3.6 1.6
-4 3 1 3.5 2.1
-4 3 1 4.3 1.6
3 -3 -1 3.4 1.6
3 -3 -1 2.5 1.1
3 -3 -1 5 2
3 -3 -1 5.4 1.6
-3 3 1 -0.1 1.7
2 -3 -1 -1.2 0.6
2 -3 -1 0.3 1.1
2 -3 -1 -1 1.7
2 -3 -1 0.7 0.6
-2 3 1 1.6 1.5
-2 3 1 1.9 1
-2 3 1 1.9 1.1
1 -3 -1 1.2 0.7
1 -3 -1 4.8 1.7
1 -3 -1 3.9 1.4
-1 3 1 0.9 1.3
-1 3 1 0.8 1.2
-1 3 1 -0.1 0.7
0 -3 -1 496.75 15.1
0 -3 -1 486.55 15.7
0 -3 -1 510.25 15.9
0 3 1 483.45 15
0 3 1 481.05 15.6
0 3 1 492.85 15.7
-1 -3 -1 -0.9 1.7
-1 -3 -1 -0.1 1.2
-1 -3 -1 0.5 1
1 3 1 0 1
1 3 1 0.8 1.4
1 3 1 -1.7 1.4
-2 -3 -1 79.49 3.8
-2 -3 -1 85.09 4.8
-2 -3 -1 83.39 4.9
-2 -3 -1 86.29 5.1
2 3 1 94.49 6.7
2 3 1 78.89 5.1
2 3 1 79.79 4.9
-3 -3 -1 561.74 17.9
-3 -3 -1 511.95 16.5
-3 -3 -1 519.95 17.4
-3 -3 -1 537.25 17.9
3 3 1 549.25 18.2
3 3 1 551.94 18.5
3 3 1 483.45 18.4
-4 -3 -1 643.54 20.5
-4 -3 -1 615.84 19.7
-4 -3 -1 629.04 21.2
-4 -3 -1 612.04 19.9
4 3 1 611.14 21.5
4 3 1 631.54 21.4
-5 -3 -1 1.8 1.3
-5 -3 -1 0.7 1.2
-5 -3 -1 -1.4 1.5
-5 -3 -1 -2.2 1.6
-5 -3 -1 1.9 1.6
5 3 1 -2.8 1.7
5 3 1 -6.3 3.8
5 3 1 0.1 2
-6 -3 -1 5.5 2.5
-6 -3 -1 9.7 3.1
6 3 1 2.6 3.2
6 3 1 5.2 2.7
6 -4 -1 6.8 3.4
6 -4 -1 1.2 3.2
-6 4 1 8.1 3.2
5 -4 -1 3.6 1.9
5 -4 -1 0.2 4.2
-5 4 1 1.2 2
4 -4 -1 -3 2.2
4 -4 -1 -0.7 1.6
4 -4 -1 1.4 1.5
4 -4 -1 -1.2 1
-4 4 1 3.8 2.3
3 -4 -1 30.6 3.4
3 -4 -1 36.7 3.3
-3 4 1 33 3.9
2 -4 -1 2755.12 75.29
2 -4 -1 2828.42 73.79
2 -4 -1 2706.13 75.49
2 -4 -1 2478.65 75.79
-2 4 1 2702.03 74.59
-2 4 1 2743.93 74.69
1 -4 -1 1381.86 38.8
1 -4 -1 1360.96 40
-1 4 1 1350.56 39.6
-1 4 1 1390.16 38.8
-1 4 1 1388.86 39.8
0 -4 -1 190.58 7.3
0 -4 -1 181.28 8.3
0 -4 -1 213.88 8.7
0 4 1 184.48 8.1
0 4 1 184.58 7.4
0 4 1 170.38 7.8
-1 -4 -1 61.69 4.6
-1 -4 -1 67.19 4.2
-1 -4 -1 66.49 5.5
1 4 1 64.59 4.8
1 4 1 66.99 4.4
1 4 1 65.19 5.6
-2 -4 -1 -1.9 1.9
-2 -4 -1 -0.2 1
-2 -4 -1 1.1 1.6
2 4 1 -1.2 1.7
2 4 1 -1 1.2
2 4 1 1.5 2.1
-3 -4 -1 48.7 4.4
-3 -4 -1 46.4 4.9
-3 -4 -1 45.7 4.2
-3 -4 -1 42.5 3.3
3 4 1 46.9 5.3
3 4 1 48.2 4.7
3 4 1 38.1 5.4
-4 -4 -1 6.7 2.4
-4 -4 -1 4.9 1.6
-4 -4 -1 4.4 2
-4 -4 -1 2.3 2.1
4 4 1 9.3 3.1
4 4 1 2.9 1.9
-5 -4 -1 9.3 2.2
-5 -4 -1 7.7 2.3
-5 -4 -1 14.1 3
5 4 1 14.4 3.3
5 4 1 6.1 2.4
-6 -4 -1 18.2 3
-6 -4 -1 10.8 2.5
6 4 1 18.4 4.2
6 4 1 16.3 3.8
6 -5 -1 4.1 4.1
6 -5 -1 -2 3.5
-6 5 1 6.4 3
5 -5 -1 -5.5 2.9
5 -5 -1 1.9 2
-5 5 1 -0.8 1.5
4 -5 -1 -3.5 1.2
4 -5 -1 4.3 3.1
4 -5 -1 0.5 1.6
-4 5 1 -0.3 1.8
3 -5 -1 7.4 2.4
3 -5 -1 5.9 1.6
3 -5 -1 2.1 3
-3 5 1 8.3 2.7
-3 5 1 6.7 1.5
-3 5 1 8.5 1.8
2 -5 -1 15.5 2.2
2 -5 -1 21.9 3.5
2 -5 -1 21.3 4.6
2 -5 -1 18.9 2.2
-2 5 1 21.8 3.4
-2 5 1 22.1 3.4
1 -5 -1 287.97 10
1 -5 -1 275.77 11.2
-1 5 1 282.37 10
-1 5 1 293.57 12.4
-1 5 1 265.27 12.5
0 -5 -1 0.5 2.3
0 -5 -1 -1.1 1
0 -5 -1 0.6 1.6
0 5 1 0.4 2.1
0 5 1 -0.1 1.8
0 5 1 -0.5 1.2
-1 -5 -1 1.1 1.4
-1 -5 -1 1.8 2.6
-1 -5 -1 -0.1 1.6
1 5 1 0.5 1.4
1 5 1 0.6 2.3
1 5 1 3.1 2.1
-2 -5 -1 2.8 1.5
-2 -5 -1 4.4 3
-2 -5 -1 4.2 2
2 5 1 4.4 2.6
2 5 1 3 3.4
2 5 1 8.1 2.3
-3 -5 -1 2.2 1.4
-3 -5 -1 1.6 1.5
-3 -5 -1 -2.9 2.5
-3 -5 -1 0 2.2
3 5 1 -3.1 2.7
3 5 1 4.1 2.2
-4 -5 -1 27.2 3.9
-4 -5 -1 26.9 4.2
-4 -5 -1 23.9 3
4 5 1 20.5 3.5
4 5 1 20.4 4.2
-5 -5 -1 2.4 2.2
-5 -5 -1 5.8 1.9
-5 -5 -1 7.1 2.5
5 5 1 2.1 2.5
5 5 1 8.3 5.1
-6 6 1 1.2 2.5
5 -6 -1 0.9 2.6
5 -6 -1 -0.8 3.5
-5 6 1 2.1 2.5
4 -6 -1 -1.2 1.2
4 -6 -1 1.9 2
4 -6 -1 1.8 3.2
-4 6 1 1.6 2.1
3 -6 -1 -0.3 4
3 -6 -1 2.9 1.5
3 -6 -1 1.6 2.3
3 -6 -1 3.4 0.9
3 -6 -1 -0.7 3.7
-3 6 1 4.5 2.7
-3 6 1 2.6 2.1
-3 6 1 2.6 2.3
2 -6 -1 558.54 20.1
2 -6 -1 574.04 17.8
2 -6 -1 552.44 18.8
-2 6 1 574.64 19.2
-2 6 1 606.04 19.4
1 -6 -1 7.2 3.4
1 -6 -1 14.5 3
1 -6 -1 12.7 2.1
-1 6 1 14.4 3.3
-1 6 1 13.4 3.1
-1 6 1 9.2 2
0 -6 -1 54.79 5
0 -6 -1 59.29 6.3
0 -6 -1 48.6 4.2
0 6 1 45.4 5.3
0 6 1 53.99 4.6
0 6 1 54.69 5.6
-1 -6 -1 2.9 3.1
-1 -6 -1 -0.6 1.3
-1 -6 -1 3.6 2.1
1 6 1 0.3 2.3
1 6 1 1.5 2.4
1 6 1 0.2 1.7
-2 -6 -1 8.1 2.6
-2 -6 -1 6.8 2
-2 -6 -1 12.8 3.8
2 6 1 8 2.3
2 6 1 7.5 3.1
-3 -6 -1 25.3 3.2
-3 -6 -1 31.7 7
-3 -6 -1 27.5 4.5
3 6 1 23.8 3.7
3 6 1 33.9 5.5
-4 -6 -1 10 3.1
-4 -6 -1 19.5 3.6
-4 -6 -1 12.7 2.3
4 6 1 8.6 2.8
-5 -6 -1 -1.3 2.6
-5 -6 -1 3.9 1.9
5 6 1 -0.2 2.7
5 6 1 -2.4 2.8
5 -7 -1 -1.6 4.1
-5 7 1 -1.6 1.8
4 -7 -1 7.3 3
4 -7 -1 -4.4 3.7
-4 7 1 3.4 2.8
3 -7 -1 5.3 3.9
3 -7 -1 8.6 2.1
3 -7 -1 6.6 1.4
3 -7 -1 11.5 3.4
-3 7 1 9.5 3.4
-3 7 1 7 4.2
-3 7 1 7.8 2.4
2 -7 -1 2.2 3.5
2 -7 -1 3.8 2.5
2 -7 -1 -0.5 0.9
-2 7 1 -0.3 2.1
-2 7 1 1.3 2.4
1 -7 -1 44.2 5.2
1 -7 -1 33.1 3.6
-1 7 1 44.4 4.2
-1 7 1 31.8 4.9
-1 7 1 38.2 5
0 -7 -1 14.1 2.6
0 -7 -1 0.7 3.3
0 7 1 8.8 2.4
0 7 1 8.7 3.1
0 7 1 16 4.2
-1 -7 -1 3.2 3.5
-1 -7 -1 4.8 2.7
-1 -7 -1 6.6 1.9
1 7 1 2.6 3.2
1 7 1 3.7 2.1
1 7 1 3 2.5
-2 -7 -1 -1.2 3
2 7 1 -1.1 2.8
2 7 1 -0.7 1.9
-3 -7 -1 3.2 2.9
-3 -7 -1 6.1 2
3 7 1 5.4 3.3
3 7 1 2.4 2.3
-4 -7 -1 6.2 2
-4 -7 -1 -1.6 2.5
4 7 1 3.1 3.5
4 7 1 4.1 2.5
4 -8 -1 -2 4.8
-4 8 1 2.6 3.1
3 -8 -1 16.3 2.1
3 -8 -1 5.9 4.2
-3 8 1 22.8 3.7
-3 8 1 18.6 4.7
-3 8 1 28.6 4.5
2 -8 -1 3.7 1.8
2 -8 -1 -0.7 3.5
-2 8 1 6.1 2.7
-2 8 1 3.2 2.8
1 -8 -1 -3.3 1.3
1 -8 -1 0.7 3.7
-1 8 1 -4.3 3
-1 8 1 1.2 1.8
-1 8 1 0.4 2.2
0 -8 -1 3.1 3.4
0 -8 -1 9.7 2.5
0 8 1 8.5 3.3
0 8 1 12 2.9
-1 -8 -1 -0.7 4.9
1 8 1 -0.5 3
1 8 1 0 2
-2 -8 -1 2.1 3
2 8 1 0.1 2.3
2 8 1 0.3 2.9
-3 -8 -1 -2.8 2.9
-3 -8 -1 2.5 2
3 8 1 2.6 3.1
3 8 1 0.2 2.5
3 -9 -1 0.2 1.4
-3 9 1 2.2 2.5
-3 9 1 -4.1 2.9
2 -9 -1 6.3 2
2 -9 -1 -0.1 3.8
-2 9 1 14.6 3.7
-2 9 1 -0.7 4.2
1 -9 -1 6.2 2.4
1 -9 -1 -2.6 3.5
-1 9 1 2.2 3.9
-1 9 1 6.5 2.7
0 -9 -1 -5.1 3.8
0 9 1 -0.7 2.8
0 9 1 0.3 2.2
-1 -9 -1 0.9 4.4
1 9 1 1 3.3
1 9 1 2.5 2.8
2 9 1 -1.8 2.5
2 9 1 0.5 3.4
-1 10 1 -0.7 2.5
-1 10 1 4.9 3.3
0 10 1 -2.1 2.5
0 10 1 5.7 3.9
0 10 -2 4.9 3.9
0 10 -2 -0.9 2.6
-1 10 -2 2.2 3.6
-1 10 -2 1.2 2.3
2 9 -2 1.9 3.1
2 9 -2 -3.2 2.3
-2 -9 2 -1.8 3.7
1 9 -2 0.1 3.1
1 9 -2 0.8 2.3
-1 -9 2 -2.6 3.8
0 9 -2 9.9 2.8
0 9 -2 6.3 3.5
-1 9 -2 1.5 2.9
-1 9 -2 1.6 2.1
1 -9 2 4.4 4.2
1 -9 2 -0.2 1.8
-2 9 -2 -0.7 1.7
-2 9 -2 0.4 2.6
2 -9 2 -0.7 1.5
2 -9 2 2.7 1.9
2 -9 2 7.2 5.1
-3 9 -2 1.4 3.1
-3 9 -2 3.4 4.3
3 8 -2 -0.2 2.1
3 8 -2 0.7 3.1
-3 -8 2 1.8 3.1
2 8 -2 9 2.9
2 8 -2 10.8 4
-2 -8 2 2.9 3.8
1 8 -2 -3 2.3
1 8 -2 -1.8 1.6
-1 -8 2 0.5 1.8
-1 -8 2 5.1 4
0 8 -2 5.5 2.3
0 8 -2 1.4 2.7
0 -8 2 -0.8 1.8
0 -8 2 0.1 3.1
-1 8 -2 1.2 2.6
-1 8 -2 0.1 1.5
-1 8 -2 -0.1 3.5
1 -8 2 1.4 1.5
1 -8 2 -1.9 3.1
-2 8 -2 -1.5 4.2
-2 8 -2 0 2.2
-2 8 -2 2 2.6
2 -8 2 -2.4 1.1
2 -8 2 -0.9 1.2
2 -8 2 -4.8 3.8
-3 8 -2 1.1 2.4
-3 8 -2 -1.1 2.9
3 -8 2 0.2 1.7
3 -8 2 0 5.3
-4 8 -2 0.6 2.1
-4 8 -2 -3.7 2.6
-4 8 -2 -0.5 2.4
4 -8 2 -4.9 4.5
4 7 -2 -0.3 2.2
4 7 -2 5.5 2.9
-4 -7 2 0.9 2.4
-4 -7 2 3.7 2.5
3 7 -2 43.6 6.2
3 7 -2 44.3 7.1
-3 -7 2 37.9 5.7
-3 -7 2 44.9 5.4
2 7 -2 6.2 2.6
2 7 -2 7.5 3.1
-2 -7 2 5 1.9
-2 -7 2 7.4 3.4
-2 -7 2 9.7 2.8
1 7 -2 7 3.1
1 7 -2 5.5 2.2
-1 -7 2 7.2 2
-1 -7 2 10.1 3
-1 -7 2 7 3.7
0 7 -2 -1.2 4.5
0 7 -2 2.6 2.7
0 7 -2 2.9 1.7
0 -7 2 3.4 1.7
0 -7 2 1 3.3
-1 7 -2 -5.1 2.5
-1 7 -2 1.2 2.2
-1 7 -2 1.6 1.5
1 -7 2 1.3 2.2
1 -7 2 -0.4 1.1
1 -7 2 -0.5 2.9
-2 7 -2 0 2.4
-2 7 -2 1.6 2.2
-2 7 -2 2.4 1.3
2 -7 2 -0.8 1.1
2 -7 2 2.3 2.5
2 -7 2 1.2 1
2 -7 2 0 3
-3 7 -2 6.4 2.9
-3 7 -2 4.7 2.4
3 -7 2 13.5 3.2
3 -7 2 5.3 1.8
3 -7 2 -1 3.7
-4 7 -2 0 1.9
-4 7 -2 4.5 2.3
4 -7 2 2.9 1.9
4 -7 2 -5.5 3.8
-5 7 -2 3.5 2.6
5 -7 2 -4 5.6
5 6 -2 5.6 3.1
5 6 -2 -2.5 1.9
-5 -6 2 3.5 2.4
-5 -6 2 2 1.8
-5 -6 2 -0.9 2.1
-5 -6 2 -0.2 1.8
4 6 -2 7.7 3.1
4 6 -2 0.9 2.2
-4 -6 2 4.9 2.3
-4 -6 2 0.4 2.3
-4 -6 2 1.1 1.7
3 6 -2 7.9 3.3
3 6 -2 7.8 2.5
3 6 -2 8.6 4.5
-3 -6 2 7.4 2.5
-3 -6 2 6.4 3
-3 -6 2 5.3 2.2
2 6 -2 28.1 4.5
-2 -6 2 28.7 4.3
-2 -6 2 32.1 5
-2 -6 2 26.1 3.8
1 6 -2 18.7 2.9
1 6 -2 23.2 4.1
1 6 -2 18 4
-1 -6 2 28.7 4.8
-1 -6 2 14.6 2.4
-1 -6 2 21.9 3.7
0 6 -2 4.2 1.9
0 6 -2 3.2 2.8
0 6 -2 3.1 2.6
0 -6 2 4.4 2.4
0 -6 2 4.3 3.2
0 -6 2 1.3 1.6
-1 6 -2 3.5 1.4
-1 6 -2 2.3 2.3
-1 6 -2 2.8 2.4
1 -6 2 -0.5 2.9
1 -6 2 2.9 2.1
1 -6 2 2.1 1.4
-2 6 -2 16.4 2.2
-2 6 -2 17.4 3.4
-2 6 -2 11.9 3.2
2 -6 2 12.5 1.9
2 -6 2 13.3 3.1
2 -6 2 9 3.9
2 -6 2 14.2 1.9
-3 6 -2 -2.4 1.8
-3 6 -2 -0.9 2.1
-3 6 -2 1.3 1.9
3 -6 2 -2.1 0.9
3 -6 2 0.6 1.9
3 -6 2 -1.4 2.9
-4 6 -2 5.9 1.7
-4 6 -2 4.6 2.6
-4 6 -2 4.8 1.9
4 -6 2 1.7 2.5
4 -6 2 4.4 1.9
4 -6 2 1.6 3.3
-5 6 -2 16.2 3.6
5 -6 2 1.7 4.1
5 5 -2 0 2.3
5 5 -2 -1.1 2.4
-5 -5 2 -0.8 1.4
-5 -5 2 -1.6 1.5
-5 -5 2 -2 2.1
-5 -5 2 1.2 1.9
4 5 -2 76.69 6.5
4 5 -2 80.29 6.8
4 5 -2 69.99 7.4
-4 -5 2 78.19 5.4
-4 -5 2 77.69 5.6
-4 -5 2 76.79 5.4
3 5 -2 74.79 6.1
3 5 -2 74.69 6.8
3 5 -2 80.19 6.3
-3 -5 2 67.39 5.3
-3 -5 2 79.39 5.1
-3 -5 2 86.49 8.7
-3 -5 2 72.39 5.8
2 5 -2 110.49 6.8
2 5 -2 118.49 7.6
2 5 -2 105.49 7.1
-2 -5 2 111.29 6.6
-2 -5 2 128.99 7.6
-2 -5 2 117.79 6.6
1 5 -2 830.12 25.3
1 5 -2 759.22 25.8
1 5 -2 801.72 26.1
-1 -5 2 834.72 26.3
-1 -5 2 789.02 25.7
-1 -5 2 789.32 25
0 5 -2 79.49 5.8
0 5 -2 86.29 6
0 5 -2 85.69 4.9
0 -5 2 86.09 5.1
0 -5 2 80.49 5.6
0 -5 2 92.59 6.6
-1 5 -2 1.8 2
-1 5 -2 -1.2 1.9
-1 5 -2 1.5 1.1
1 -5 2 1.7 1.7
1 -5 2 0.8 2.6
1 -5 2 1.6 1.1
-2 5 -2 4.9 3.4
-2 5 -2 6 1.1
-2 5 -2 9.3 2.8
2 -5 2 6.8 2.3
2 -5 2 1 2.9
2 -5 2 4.5 1
2 -5 2 4.4 1.2
-3 5 -2 2.9 1.8
-3 5 -2 3.5 1.9
-3 5 -2 6.1 2.2
3 -5 2 -2.5 2.5
3 -5 2 5.8 2.3
3 -5 2 3.2 1.3
-4 5 -2 19.1 3.3
-4 5 -2 16.6 2.4
4 -5 2 15 3.3
4 -5 2 13.7 2.6
4 -5 2 15.5 3.8
-5 5 -2 -1.4 1.7
5 -5 2 1.4 3.1
-6 5 -2 7.2 3
6 -5 2 1.1 3.8
6 4 -2 0.9 2.3
6 4 -2 0.8 2.4
-6 -4 2 -1.1 1.5
-6 -4 2 -0.8 1.5
5 4 -2 1 2.1
5 4 -2 3.7 2.5
5 4 -2 6.1 3.7
-5 -4 2 4 1.8
-5 -4 2 2.2 1.6
4 4 -2 5.2 2.4
4 4 -2 9.6 3.5
4 4 -2 6.4 2.4
-4 -4 2 6.2 1.9
-4 -4 2 5.6 1.7
-4 -4 2 3 1.8
-4 -4 2 4.3 2
-4 -4 2 5.9 1.9
3 4 -2 20.1 4
3 4 -2 20.1 3.4
3 4 -2 15 2.6
-3 -4 2 20.6 3.4
-3 -4 2 23.5 4.3
-3 -4 2 15 2.5
-3 -4 2 16.8 2.6
2 4 -2 107.29 6.1
2 4 -2 102.19 6.5
2 4 -2 108.59 6.4
-2 -4 2 114.39 6.4
-2 -4 2 109.89 5.9
1 4 -2 532.35 18.3
1 4 -2 571.54 18
1 4 -2 558.14 18.6
-1 -4 2 551.44 19.8
-1 -4 2 534.45 19.4
-1 -4 2 585.24 18.7
0 4 -2 119.39 6.3
0 4 -2 125.99 5.5
0 4 -2 119.89 6.2
0 -4 2 123.49 6.7
0 -4 2 119.09 6.5
0 -4 2 124.39 5.4
-1 4 -2 204.28 8.5
-1 4 -2 204.28 7.2
-1 4 -2 203.98 8.5
1 -4 2 227.48 9.3
1 -4 2 192.38 9.8
1 -4 2 198.28 7
-2 4 -2 4.8 2
-2 4 -2 7.1 2.2
2 -4 2 9.9 1.5
2 -4 2 6.9 2.1
2 -4 2 4.5 2.6
-3 4 -2 46.7 3.7
-3 4 -2 45 4
-3 4 -2 46.9 3.7
3 -4 2 48.5 3.5
3 -4 2 44.2 4.3
-4 4 -2 64.09 4.8
-4 4 -2 62.99 5
4 -4 2 78.09 5.5
4 -4 2 69.19 4.7
4 -4 2 68.49 5.8
-5 4 -2 20.6 3.6
-5 4 -2 13.9 2.7
5 -4 2 13.4 3.7
5 -4 2 13.5 3.7
-6 4 -2 4.9 2.3
6 -4 2 1.3 3.9
6 -4 2 1.6 3.3
6 3 -2 -0.8 4.1
6 3 -2 11.7 2.9
6 3 -2 2.3 3.7
-6 -3 2 4.6 2.1
-6 -3 2 7.8 2.2
5 3 -2 16.9 3.2
5 3 -2 16.9 3.4
5 3 -2 9.6 4
5 3 -2 11.5 2.7
-5 -3 2 13.6 2.8
-5 -3 2 13.6 2.7
-5 -3 2 14.7 2.5
4 3 -2 -3.1 2.4
4 3 -2 0.6 2
4 3 -2 -0.6 1.5
-4 -3 2 0.2 1.1
-4 -3 2 0.6 1.4
-4 -3 2 1.5 1.4
-4 -3 2 0.4 1.2
-4 -3 2 1.4 1.6
3 3 -2 125.29 6.6
3 3 -2 126.59 6.8
3 3 -2 128.19 6.8
-3 -3 2 125.99 6
-3 -3 2 126.29 5.9
-3 -3 2 120.89 6.5
-3 -3 2 121.19 5.6
2 3 -2 1616.64 46.5
2 3 -2 1594.04 46.5
2 3 -2 1607.84 46.5
-2 -3 2 1640.34 46.1
-2 -3 2 1639.94 46.5
-2 -3 2 1583.64 45.9
1 3 -2 48 3.3
1 3 -2 47.5 3.7
1 3 -2 49.99 3.7
-1 -3 2 48.3 3.6
-1 -3 2 45.3 3.2
-1 -3 2 50.89 3.5
0 3 -2 50.69 3.6
0 3 -2 51.09 3
0 3 -2 51.69 3.6
0 -3 2 51.69 3.5
0 -3 2 60.59 3.9
0 -3 2 53.79 3
-1 3 -2 11.1 1.9
-1 3 -2 13.3 1.4
-1 3 -2 18.4 2.7
1 -3 2 12.3 1.4
1 -3 2 12.1 2.5
1 -3 2 15.3 1.4
1 -3 2 15.5 2.3
-2 3 -2 16.7 2.2
-2 3 -2 14.9 2.1
-2 3 -2 13.8 2.2
2 -3 2 13.6 2.2
2 -3 2 12.4 2.5
2 -3 2 14 1.7
-3 3 -2 -0.8 1.1
-3 3 -2 -0.7 0.9
-3 3 -2 0.2 1.3
-3 3 -2 0.8 1.2
3 -3 2 0.7 2
3 -3 2 0.5 1.6
3 -3 2 -0.8 0.9
-4 3 -2 0.6 1.5
-4 3 -2 0 1.1
4 -3 2 1.5 2.4
4 -3 2 -1.5 1.2
4 -3 2 -1.8 1.3
4 -3 2 -0.4 2.4
-5 3 -2 12.7 2.6
-5 3 -2 17.3 3
5 -3 2 26.7 4.1
5 -3 2 21.1 3.8
-6 3 -2 3.6 1.7
6 -3 2 8.7 3.3
6 -3 2 3.7 4.9
6 2 -2 -4 3.7
6 2 -2 4.7 2.2
6 2 -2 9.1 2.7
-6 -2 2 2.2 1.9
-6 -2 2 4.5 2
5 2 -2 7.6 3.2
5 2 -2 9.2 2.4
5 2 -2 5.7 2.2
5 2 -2 9.2 2.5
-5 -2 2 8.4 2.3
-5 -2 2 5.4 2
-5 -2 2 9.3 2.1
4 2 -2 3.1 1.6
4 2 -2 4.4 1.9
4 2 -2 6.6 2.1
4 2 -2 8.1 2.9
-4 -2 2 5.9 1.8
-4 -2 2 6.6 1.8
-4 -2 2 2.4 1.1
3 2 -2 12.7 2.3
3 2 -2 19.6 3.1
-3 -2 2 14.3 1.9
-3 -2 2 12.8 1.6
-3 -2 2 13.8 2
-3 -2 2 11.5 2.2
2 2 -2 2527.95 69.49
2 2 -2 2533.55 69.89
2 2 -2 2541.85 69.49
-2 -2 2 2461.25 69.09
-2 -2 2 2424.66 68.89
-2 -2 2 2580.74 69.79
-2 -2 2 2476.05 68.89
1 2 -2 159.98 6
1 2 -2 157.58 6.1
1 2 -2 155.98 6.1
-1 -2 2 156.38 6
-1 -2 2 154.78 5.9
0 2 -2 644.04 19.5
0 2 -2 661.83 19.6
0 2 -2 673.73 19
0 -2 2 657.73 19
0 -2 2 687.33 19.8
0 -2 2 645.44 19.5
-1 2 -2 257.97 8.8
-1 2 -2 278.77 8
-1 2 -2 255.17 7.6
-1 2 -2 257.67 8.8
1 -2 2 251.07 7.9
1 -2 2 269.47 9.1
1 -2 2 248.78 8.8
-2 2 -2 337.57 10.8
-2 2 -2 337.87 10.9
-2 2 -2 333.47 10.8
-2 2 -2 339.97 10.9
2 -2 2 335.97 11.2
2 -2 2 339.07 10.8
2 -2 2 330.37 11.3
-3 2 -2 9.2 2
-3 2 -2 9.2 1.5
-3 2 -2 9 1.5
-3 2 -2 5.4 1.5
3 -2 2 10.9 1.9
3 -2 2 12.8 2.4
3 -2 2 10.5 2.3
3 -2 2 8.4 1.6
-4 2 -2 92.99 5.7
-4 2 -2 97.49 5.6
4 -2 2 102.99 5.6
4 -2 2 102.59 5.9
4 -2 2 97.39 6
4 -2 2 96.39 6
4 -2 2 99.59 3.8
-5 2 -2 2.7 1.7
5 -2 2 2.1 2.3
5 -2 2 8.5 2.7
5 -2 2 4.1 1
5 -2 2 6.4 2.6
5 -2 2 3.9 1.9
-6 2 -2 42.2 4.7
6 -2 2 38.8 5.7
6 -2 2 42.4 5.5
7 1 -2 -1.8 2.2
7 1 -2 6.3 3.3
-7 -1 2 0.6 2
6 1 -2 -1.3 1.5
6 1 -2 0 1.9
-6 -1 2 -1.3 1.4
5 1 -2 66.09 5
5 1 -2 57.99 5.1
5 1 -2 70.79 5.6
5 1 -2 57.69 4.9
5 1 -2 58.39 4.3
-5 -1 2 54.19 4.6
-5 -1 2 60.79 5.1
-5 -1 2 62.09 4.8
4 1 -2 5.1 1.9
4 1 -2 6.8 1.9
4 1 -2 4 1.6
4 1 -2 4.3 1.8
4 1 -2 6 2.1
-4 -1 2 3.8 1.5
-4 -1 2 4.4 1.6
-4 -1 2 2.7 1.6
3 1 -2 39.9 3.6
3 1 -2 40.5 3
3 1 -2 33.9 3.3
3 1 -2 43.6 2.9
3 1 -2 39.8 3.1
-3 -1 2 39.4 3.2
-3 -1 2 34.5 3
-3 -1 2 42.6 3.2
2 1 -2 1246.18 35.5
2 1 -2 1293.47 35.9
2 1 -2 1219.18 35.1
2 1 -2 1255.37 35.2
-2 -1 2 1273.07 35.8
-2 -1 2 1263.27 35.8
-2 -1 2 1279.07 35.6
1 1 -2 912.81 25.7
1 1 -2 891.01 25.2
1 1 -2 888.51 25.3
-1 -1 2 926.11 25.2
-1 -1 2 899.91 25.6
-1 -1 2 899.91 25.1
0 1 -2 1829.82 50.59
0 1 -2 1875.91 50.59
0 -1 2 1833.22 50.59
-1 1 -2 932.11 25.6
-1 1 -2 928.31 26.2
-1 1 -2 918.91 26.3
-1 1 -2 921.91 25.8
1 -1 2 934.31 26.4
-2 1 -2 191.28 5.9
-2 1 -2 190.68 6.6
-2 1 -2 185.88 6.8
-2 1 -2 186.08 6.6
-2 1 -2 192.78 6.6
2 -1 2 192.48 6
2 -1 2 187.68 7
2 -1 2 194.08 6.5
2 -1 2 178.78 6.9
-3 1 -2 20 1.8
-3 1 -2 20.5 2.1
-3 1 -2 20.4 2.4
-3 1 -2 23.5 2.1
3 -1 2 24.2 2.8
3 -1 2 21.9 2.8
3 -1 2 21.4 3.2
3 -1 2 22.7 2
3 -1 2 22 2.2
-4 1 -2 12.7 2.1
-4 1 -2 13.8 1.7
4 -1 2 12.9 1.7
4 -1 2 17.8 2.9
4 -1 2 21.5 3.9
4 -1 2 19.5 3
4 -1 2 18.9 2.5
-5 1 -2 268.97 11.5
-5 1 -2 250.17 9.3
5 -1 2 259.27 9.5
5 -1 2 254.07 10.8
5 -1 2 270.87 11.2
5 -1 2 265.87 11.2
5 -1 2 229.68 11.8
-6 1 -2 26.2 3.9
6 -1 2 32.3 4.4
6 -1 2 43.3 5.3
6 -1 2 30 4.9
6 -1 2 38.6 5.5
-7 1 -2 3.3 3
7 0 -2 5.4 2.5
7 0 -2 2.5 2.1
-7 0 2 2.3 2.1
6 0 -2 1.9 1.6
6 0 -2 1.7 2.3
6 0 -2 -2.2 2.1
-6 0 2 -0.5 1.3
5 0 -2 4.3 1.6
5 0 -2 3 1.9
5 0 -2 6.5 2.3
5 0 -2 5.2 1.9
5 0 -2 4.5 1.8
-5 0 2 5.7 2.1
4 0 -2 54.69 4.4
4 0 -2 53.29 3.3
4 0 -2 49.99 3.4
4 0 -2 52.99 4
4 0 -2 52.49 3.8
-4 0 2 55.99 4.3
-4 0 2 53.59 4
3 0 -2 5.4 1.9
3 0 -2 6 1.4
3 0 -2 3.9 1.3
3 0 -2 4.9 1.5
3 0 -2 4.2 1
-3 0 2 4.1 1.3
-3 0 2 3.8 1.3
2 0 -2 1406.06 39.2
2 0 -2 1390.26 39
2 0 -2 1385.56 40
2 0 -2 1338.17 39.2
-2 0 2 1339.47 39.1
-2 0 2 1525.55 39.7
1 0 -2 510.45 15.2
1 0 -2 515.75 15.2
1 0 -2 533.55 15.8
-1 0 2 526.45 15.2
-1 0 2 520.15 15.2
-1 0 2 584.34 16.1
0 0 2 2478.35 74.89
-1 0 -2 459.45 13.5
-1 0 -2 459.75 13.9
-1 0 -2 480.85 13.9
1 0 2 466.05 13.5
1 0 2 464.75 13.9
1 0 2 475.55 14
-2 0 -2 320.07 10
-2 0 -2 300.87 10.1
-2 0 -2 321.47 10.3
2 0 2 315.17 9.9
2 0 2 319.07 10.5
2 0 2 325.97 10.6
2 0 2 311.97 10
2 0 2 322.17 9.9
-3 0 -2 78.69 3.9
-3 0 -2 84.19 4.1
-3 0 -2 78.69 4.6
3 0 2 79.99 4.8
3 0 2 87.09 4.1
3 0 2 80.99 4.3
3 0 2 81.59 4.7
3 0 2 79.29 4.1
-4 0 -2 10.9 2.3
-4 0 -2 10.8 1.9
-4 0 -2 15.3 2
-4 0 -2 11.9 1.9
4 0 2 15.5 2.9
4 0 2 13.3 2.1
4 0 2 17.6 3.1
4 0 2 19.4 3.1
4 0 2 13.1 2.1
-5 0 -2 1 1.5
-5 0 -2 2.9 1.7
5 0 2 1.7 1.9
5 0 2 -0.1 1.7
5 0 2 3.1 1.6
5 0 2 2.9 2.3
5 0 2 7.1 3
-6 0 -2 4.8 1.7
-6 0 -2 0.8 1.8
6 0 2 5.5 2
6 0 2 9.6 3.2
6 0 2 2.1 2.5
6 0 2 8.6 3.8
7 -1 -2 -1.9 1.4
7 -1 -2 -3.2 2.1
-7 1 2 0.1 2.1
6 -1 -2 2.9 2.2
6 -1 -2 17.7 2.8
6 -1 -2 14.7 5.5
6 -1 -2 9.9 2
-6 1 2 8.3 2.1
5 -1 -2 3.8 1.9
5 -1 -2 -0.9 1
5 -1 -2 2.4 1.6
5 -1 -2 -2.4 1.5
5 -1 -2 -0.4 1.4
-5 1 2 1.2 1.4
4 -1 -2 6.9 1.4
4 -1 -2 6.2 1.9
4 -1 -2 6.5 1.5
4 -1 -2 7.2 2.2
4 -1 -2 4.1 1.4
-4 1 2 5.1 1.7
3 -1 -2 224.98 8.3
3 -1 -2 225.68 7.7
3 -1 -2 212.28 8.8
3 -1 -2 216.08 8.5
-3 1 2 225.28 8.6
-3 1 2 221.88 9.1
2 -1 -2 423.06 13.3
2 -1 -2 421.46 13.5
2 -1 -2 435.56 14.1
2 -1 -2 419.46 12.8
-2 1 2 477.05 14
-2 1 2 425.46 14.1
-2 1 2 428.56 13.3
1 -1 -2 1333.57 37.6
1 -1 -2 1348.77 38.4
1 -1 -2 1451.55 37.2
1 -1 -2 1351.46 38
-1 1 2 1352.96 38.6
0 -1 -2 670.53 19
0 -1 -2 641.94 18.8
0 -1 -2 661.83 18.9
0 1 2 712.93 19.1
0 1 2 637.44 18.9
0 1 2 662.33 18.8
-1 -1 -2 19.5 1.2
-1 -1 -2 22.1 2.2
-1 -1 -2 20.7 1.9
1 1 2 19.5 2.2
1 1 2 20.4 1.3
1 1 2 20.1 2.4
1 1 2 19.7 1.9
-2 -1 -2 380.26 11.9
-2 -1 -2 356.76 11.1
-2 -1 -2 350.16 11.8
-2 -1 -2 362.96 12
2 1 2 370.16 12.3
2 1 2 367.66 11.1
2 1 2 364.96 11.8
2 1 2 365.76 12.1
-3 -1 -2 200.78 7.4
-3 -1 -2 189.78 7.5
-3 -1 -2 206.38 7.7
-3 -1 -2 199.88 7.8
3 1 2 203.88 7.9
3 1 2 200.98 7.4
3 1 2 196.88 8.2
3 1 2 189.48 8.4
-4 -1 -2 821.02 24.7
-4 -1 -2 823.32 25.7
-4 -1 -2 843.62 24.8
-4 -1 -2 850.91 26.8
4 1 2 846.82 28.5
4 1 2 814.02 26.6
4 1 2 839.02 26.3
4 1 2 849.02 25.5
4 1 2 851.71 26
-5 -1 -2 -0.3 1.7
-5 -1 -2 0.2 1.4
5 1 2 0.9 1.8
5 1 2 3.2 2.4
5 1 2 0.4 1.9
5 1 2 5.1 2.8
5 1 2 0.3 1.8
-6 -1 -2 -1.7 1.6
-6 -1 -2 1.9 1.7
6 1 2 6.6 2.2
6 1 2 2.1 2.5
6 1 2 1.1 2
6 1 2 -7.5 3.4
7 -2 -2 -5.2 3.1
7 -2 -2 -2.8 1.3
-7 2 2 -1.2 2
6 -2 -2 1.1 1.1
6 -2 -2 -1.5 1.9
6 -2 -2 -1.2 2.1
-6 2 2 0.9 1.7
5 -2 -2 2 1.1
5 -2 -2 3.8 1.6
5 -2 -2 2.2 2.1
5 -2 -2 3.3 1.8
5 -2 -2 4.5 1.8
-5 2 2 1.2 1.3
4 -2 -2 47.1 4
4 -2 -2 39.7 2.7
4 -2 -2 40.5 3
4 -2 -2 43.2 3.9
4 -2 -2 45.6 4.2
4 -2 -2 41.4 2.9
-4 2 2 44.9 4
-4 2 2 42.4 4.3
3 -2 -2 34.7 2.9
3 -2 -2 35.8 2.2
3 -2 -2 36 3.4
3 -2 -2 35.9 2.4
3 -2 -2 35.8 2.2
3 -2 -2 35.8 3
-3 2 2 40.9 3.4
-3 2 2 35.5 3.6
2 -2 -2 330.97 10.8
2 -2 -2 316.47 10
2 -2 -2 349.47 10.2
2 -2 -2 331.47 11
-2 2 2 335.87 11.9
1 -2 -2 6.7 1.7
1 -2 -2 2.7 1.1
-1 2 2 4.4 1.2
-1 2 2 3.5 1
0 -2 -2 1148.19 31.4
0 -2 -2 1096.49 31.2
0 -2 -2 1102.39 30.8
0 2 2 1056.19 31.1
0 2 2 1091.59 31.2
0 2 2 1066.89 30.8
-1 -2 -2 555.94 17.2
-1 -2 -2 585.84 17.4
-1 -2 -2 565.04 16.9
1 2 2 508.55 17.4
1 2 2 571.04 17.1
1 2 2 565.04 17.4
-2 -2 -2 115.69 4.5
-2 -2 -2 119.19 5.5
-2 -2 -2 121.09 5.8
-2 -2 -2 117.19 5.4
2 2 2 120.09 5.6
2 2 2 120.89 5.9
2 2 2 109.39 5.8
-3 -2 -2 135.69 6.3
-3 -2 -2 138.19 6.5
-3 -2 -2 133.99 5.6
-3 -2 -2 141.49 6.6
3 2 2 140.29 7.4
3 2 2 136.59 6.9
3 2 2 136.09 7
-4 -2 -2 218.18 9.4
-4 -2 -2 211.88 8.7
-4 -2 -2 217.08 8.8
-4 -2 -2 222.58 8.6
4 2 2 221.18 9.7
4 2 2 221.28 10.1
4 2 2 203.68 10.3
-5 -2 -2 3.5 1.4
-5 -2 -2 3.2 1.8
-5 -2 -2 7.8 1.7
5 2 2 5.6 2.1
5 2 2 3.8 1.9
5 2 2 4 2.4
5 2 2 -2.4 3.1
-6 -2 -2 0 1.5
6 2 2 4.5 2.3
6 2 2 -2.7 1.7
6 2 2 1.1 2.4
6 -3 -2 1.6 2.6
6 -3 -2 1 2.3
6 -3 -2 -2.5 2.4
-6 3 2 3.5 2
5 -3 -2 7.4 2.2
5 -3 -2 7.3 2.4
5 -3 -2 8.1 2.1
-5 3 2 8.5 2.4
-5 3 2 10.7 3
4 -3 -2 13.9 1.5
4 -3 -2 15.3 2.2
4 -3 -2 11.3 2.1
4 -3 -2 14.5 2.5
4 -3 -2 10.8 2.3
-4 3 2 12.5 2.5
-4 3 2 10.8 2.7
3 -3 -2 142.29 6.6
3 -3 -2 143.59 6.2
3 -3 -2 141.49 6.4
3 -3 -2 140.19 5
3 -3 -2 137.59 5.7
-3 3 2 143.59 7.3
2 -3 -2 19.6 2.4
2 -3 -2 16.4 1.7
2 -3 -2 20.1 2.2
2 -3 -2 17 2.9
-2 3 2 20.4 2.8
1 -3 -2 417.66 12.5
1 -3 -2 398.56 13.1
1 -3 -2 419.66 13.5
-1 3 2 398.96 12.8
-1 3 2 407.46 12.5
-1 3 2 392.66 12.8
0 -3 -2 205.68 7.4
0 -3 -2 212.08 8.3
0 -3 -2 200.08 7.9
0 3 2 196.78 7.4
0 3 2 199.98 7.9
0 3 2 204.98 8
-1 -3 -2 906.81 26.7
-1 -3 -2 927.81 27.3
-1 -3 -2 889.11 27.1
1 3 2 904.61 26.8
1 3 2 872.41 27.1
1 3 2 882.01 27.2
-2 -3 -2 122.79 4.9
-2 -3 -2 126.09 6.4
-2 -3 -2 133.69 6.2
-2 -3 -2 126.39 6.6
2 3 2 139.69 8.1
2 3 2 129.49 6.8
2 3 2 128.79 7
-3 -3 -2 28.3 2.6
-3 -3 -2 26.1 3.4
-3 -3 -2 27.3 3.5
-3 -3 -2 36.5 4.7
3 3 2 32.4 4.2
3 3 2 28.9 4.8
-4 -3 -2 824.02 25.6
-4 -3 -2 811.72 26.5
-4 -3 -2 861.51 26
-4 -3 -2 797.32 24.8
4 3 2 707.73 27.1
4 3 2 880.91 27
4 3 2 850.91 27.3
-5 -3 -2 15.6 3.1
-5 -3 -2 24.6 3.3
-5 -3 -2 21.7 2.9
-5 -3 -2 13.4 2.4
5 3 2 21.8 3.8
5 3 2 22 3.6
5 3 2 25.1 5
-6 -3 -2 2.8 1.7
6 3 2 5.9 2.6
6 3 2 2.2 2.7
6 -4 -2 4.4 3
-6 4 2 -1.5 2
5 -4 -2 2.4 2.5
-5 4 2 3 2.3
4 -4 -2 23.1 3.6
4 -4 -2 15.2 2.4
4 -4 -2 16.3 3
4 -4 -2 23.2 3.7
-4 4 2 18.9 3.7
3 -4 -2 23.3 2.8
3 -4 -2 20 3
3 -4 -2 21 1.8
-3 4 2 24.3 3.8
2 -4 -2 3134.19 85.39
2 -4 -2 3177.18 87.29
2 -4 -2 3079.49 86.69
2 -4 -2 3213.58 87.29
2 -4 -2 3142.29 86.79
-2 4 2 3067.69 85.69
-2 4 2 3072.09 85.69
1 -4 -2 1443.66 40.4
1 -4 -2 1488.45 42
1 -4 -2 1407.76 41.4
-1 4 2 1425.66 40.4
-1 4 2 1341.27 40.8
-1 4 2 1443.96 41.1
0 -4 -2 18.1 3.2
0 -4 -2 15 4.1
0 -4 -2 11.6 1.8
0 4 2 11 2.2
0 4 2 17 3
0 4 2 13.4 1.9
-1 -4 -2 93.09 5.2
-1 -4 -2 89.19 5.5
-1 -4 -2 105.69 7.3
1 4 2 87.99 6
1 4 2 93.39 6
-2 -4 -2 132.39 5.4
-2 -4 -2 143.09 7.5
-2 -4 -2 127.89 6.7
-2 -4 -2 127.19 7.1
2 4 2 132.19 7.5
2 4 2 143.89 7.8
2 4 2 134.39 7.1
-3 -4 -2 4 1.8
-3 -4 -2 3.5 2.6
-3 -4 -2 4.4 2
-3 -4 -2 3.1 1.4
3 4 2 3.9 3.1
3 4 2 3.4 2.6
3 4 2 3.6 2
-4 -4 -2 112.79 5.6
-4 -4 -2 107.19 6.8
-4 -4 -2 106.89 6.4
-4 -4 -2 108.29 6.9
4 4 2 109.39 8.2
4 4 2 117.69 7.7
4 4 2 107.89 7.6
-5 -4 -2 2.5 2
-5 -4 -2 9 2.2
-5 -4 -2 1.8 1.8
-5 -4 -2 2.6 1.6
5 4 2 2.3 1.9
5 4 2 4.8 2.8
-6 -4 -2 17.7 3.8
-6 -4 -2 17.8 4
6 4 2 12.7 3.4
6 4 2 15.6 3.8
6 -5 -2 1.4 3.3
-6 5 2 2.3 2.4
5 -5 -2 1 2
5 -5 -2 3.4 2.8
-5 5 2 -0.1 1.7
4 -5 -2 7.5 2.2
4 -5 -2 0.5 2.7
4 -5 -2 3.2 1.8
4 -5 -2 6 2
-4 5 2 5.7 2.7
3 -5 -2 -1.3 1.1
3 -5 -2 2 4
3 -5 -2 1.6 1.7
3 -5 -2 0.5 0.8
-3 5 2 0.4 2
2 -5 -2 11.2 2.6
2 -5 -2 9.8 1.6
2 -5 -2 4.5 3.4
-2 5 2 10.2 2.4
-2 5 2 11.9 2.5
1 -5 -2 23.4 3.5
1 -5 -2 15.7 3.6
1 -5 -2 20.9 2.8
-1 5 2 18.7 4.2
-1 5 2 24.7 4
-1 5 2 24.3 3.1
0 -5 -2 3.8 2.6
0 -5 -2 2.8 1.4
0 -5 -2 0 1.7
0 5 2 3.2 2.3
0 5 2 4.9 1.9
0 5 2 0.6 1.9
-1 -5 -2 3 1.4
-1 -5 -2 1.2 2.6
-1 -5 -2 0.2 1.8
1 5 2 1.7 1.6
1 5 2 2.9 2.3
1 5 2 2.4 2.6
-2 -5 -2 183.48 9.3
-2 -5 -2 189.78 9.7
-2 -5 -2 175.58 8.6
2 5 2 185.68 9.1
2 5 2 183.58 9.8
2 5 2 189.68 10
-3 -5 -2 827.72 27.9
-3 -5 -2 814.02 25.6
-3 -5 -2 885.01 28.6
-3 -5 -2 889.71 29.4
3 5 2 864.51 28.5
3 5 2 870.31 29.3
-4 -5 -2 1.4 2
-4 -5 -2 -0.3 1.1
-4 -5 -2 0 2.1
4 5 2 2.5 2.4
4 5 2 3.5 2.3
-5 -5 -2 4 2.4
-5 -5 -2 3.2 1.8
5 5 2 4.3 3
5 5 2 6.6 2.7
6 -6 -2 3 3.2
-6 6 2 1.1 2.3
5 -6 -2 -1.1 2.5
5 -6 -2 -5.6 3.3
4 -6 -2 1.8 2.1
4 -6 -2 -2.5 3.1
-4 6 2 -0.2 2
3 -6 -2 371.86 12.1
3 -6 -2 384.56 14.9
3 -6 -2 365.66 14.1
-3 6 2 394.86 16.3
-3 6 2 386.36 12.7
-3 6 2 389.46 12.7
2 -6 -2 87.19 4.8
2 -6 -2 80.99 6.3
-2 6 2 78.19 6.8
-2 6 2 96.89 6
1 -6 -2 0.2 1.8
1 -6 -2 0.5 1.1
1 -6 -2 1.7 2.8
-1 6 2 2.9 2.2
-1 6 2 -1.5 2.2
-1 6 2 0.2 1.5
0 -6 -2 8.5 1.9
0 -6 -2 14.4 3.2
0 -6 -2 5 3.3
0 6 2 17.4 4
0 6 2 10 2.3
0 6 2 13.3 3.2
-1 -6 -2 3.4 1.7
-1 -6 -2 4 3.3
-1 -6 -2 5.4 2.5
1 6 2 3.2 2.6
1 6 2 1.2 2.9
1 6 2 2.8 2.1
-2 -6 -2 22.9 3.5
-2 -6 -2 17.6 4
-2 -6 -2 26.3 4.9
2 6 2 19.8 4.1
2 6 2 20.1 3.5
-3 -6 -2 -0.6 2.3
-3 -6 -2 1.4 1.3
-3 -6 -2 -1.6 2
3 6 2 1 2.2
3 6 2 -0.7 2.7
-4 -6 -2 25.1 3.1
-4 -6 -2 24.6 4.2
-4 -6 -2 16 3.6
4 6 2 22.6 4.1
4 6 2 26 5
-5 -6 -2 36.1 5.6
-5 -6 -2 21.2 2.9
5 6 2 22 4.9
5 6 2 23.7 4.7
5 -7 -2 -2.5 4.3
-5 7 2 -2 2.2
4 -7 -2 6.2 2.8
4 -7 -2 8.2 3.8
-4 7 2 3.5 3.2
3 -7 -2 2.3 1.9
3 -7 -2 1.8 2.4
3 -7 -2 6.8 3.8
3 -7 -2 1 1.1
-3 7 2 1.4 2.1
-3 7 2 3.7 2.2
-3 7 2 1.5 2.7
2 -7 -2 21.6 2.9
2 -7 -2 35.1 5
-2 7 2 26.4 4.5
-2 7 2 34.7 4.6
1 -7 -2 1.7 3.2
1 -7 -2 0.1 1.3
1 -7 -2 2.7 2.4
-1 7 2 0.9 2.6
-1 7 2 0 1.6
-1 7 2 0.7 2.1
0 -7 -2 1.9 3.4
0 -7 -2 -0.2 1.3
0 7 2 -4.4 3.2
0 7 2 -0.3 2.2
0 7 2 1.1 1.8
-1 -7 -2 13.1 3.3
-1 -7 -2 11.5 2.4
-1 -7 -2 11 3.9
1 7 2 7.7 2.3
1 7 2 7.1 3.8
1 7 2 12.5 3.6
-2 -7 -2 12.1 4
2 7 2 17.6 4.5
2 7 2 14.8 3.5
-3 -7 -2 36.1 3.6
3 7 2 46.8 6.6
3 7 2 29 4.6
-4 -7 -2 5.3 1.7
-4 -7 -2 -2.4 2.6
4 7 2 -2.3 2.2
4 7 2 0.9 2.8
4 -8 -2 10.2 7.2
3 -8 -2 71.09 6.6
-3 8 2 98.19 6.2
-3 8 2 85.49 8.2
-3 8 2 87.19 6.1
2 -8 -2 -3.8 3.3
2 -8 -2 -2.7 1.3
-2 8 2 -1.1 2.2
-2 8 2 -1.8 2.8
1 -8 -2 -1.2 3.4
1 -8 -2 -0.8 1.6
-1 8 2 -2.3 3.3
-1 8 2 1.7 1.9
-1 8 2 1.4 2.5
0 -8 -2 -3 1.5
0 -8 -2 -5.5 3.6
0 8 2 -0.5 2.4
0 8 2 1.3 2.2
-1 -8 -2 -1.2 3.5
1 8 2 0.4 2.2
2 8 2 12 3.2
2 8 2 14.3 4.3
-3 -8 -2 5.2 1.8
-3 -8 -2 1.3 3.1
3 8 2 7.9 3.3
3 8 2 13 4.6
3 -9 -2 -1.6 1.4
-3 9 2 -1.8 2.2
-3 9 2 -2 3.6
-3 9 2 1.9 3.1
2 -9 -2 2.5 4.8
2 -9 -2 0.2 1.9
-2 9 2 -0.4 3.9
-2 9 2 6.1 3
1 -9 -2 0.9 1.9
1 -9 -2 -0.3 3.9
-1 9 2 -0.5 2.8
-1 9 2 -0.8 2
0 -9 -2 1.1 3.8
0 9 2 2.6 3
0 9 2 -0.7 2.2
-1 -9 -2 -5.7 3.5
1 9 2 5.7 3.7
1 9 2 0.9 2.4
2 9 2 5 3.1
2 9 2 12.4 4.2
-1 10 2 -3.5 4.1
-1 10 2 1.8 4.3
0 10 -3 -2.9 2.3
0 10 -3 0.6 3.4
-1 10 -3 -2.2 2.3
-1 10 -3 4.9 3.6
1 -10 3 -2.2 2.3
2 9 -3 13.8 4.5
2 9 -3 10.4 3.1
-2 -9 3 4.4 4.2
1 9 -3 -0.7 2.1
1 9 -3 -0.6 2.7
-1 -9 3 -3.1 3.4
0 9 -3 3.2 2.8
0 9 -3 -1.6 2
0 -9 3 -4.6 3.4
-1 9 -3 1.8 2.8
1 -9 3 -1.1 1.5
1 -9 3 -0.7 3.6
-2 9 -3 0.1 1.7
2 -9 3 -6.1 4.6
-3 9 -3 2.8 2.9
-3 9 -3 -8.6 6
3 -9 3 2.9 2.1
3 8 -3 -1.4 2.3
3 8 -3 -1.3 2.8
-3 -8 3 1.9 2.9
2 8 -3 3.3 2.7
2 8 -3 11.2 3.7
-2 -8 3 4.6 3.9
1 8 -3 0.9 3
1 8 -3 2.7 2.1
-1 -8 3 -2.4 3
-1 -8 3 1.6 2.2
0 8 -3 5.2 3
0 8 -3 7.2 2.3
0 -8 3 2.4 1.8
0 -8 3 -3.9 2.7
-1 8 -3 2.4 2.7
-1 8 -3 -0.5 1.7
1 -8 3 -2.3 2.9
1 -8 3 0.3 1.3
-2 8 -3 11 3.3
-2 8 -3 3.8 3.5
-2 8 -3 3 1.7
2 -8 3 2.5 1.7
-3 8 -3 0.4 2.4
-3 8 -3 -2.3 3.1
3 -8 3 -4.8 3.9
3 -8 3 0.1 1.5
-4 8 -3 0.8 3
-4 8 -3 4 2.4
-4 8 -3 -0.5 2.7
4 -8 3 4 4.7
4 7 -3 1.2 2.5
4 7 -3 -0.8 2.6
-4 -7 3 8.9 2.8
-4 -7 3 0.9 2.7
-4 -7 3 4.2 1.9
3 7 -3 -1.5 2
3 7 -3 0.2 2.7
-3 -7 3 0.9 2.9
-3 -7 3 2.3 2.4
2 7 -3 2.9 2.6
2 7 -3 -0.2 1.7
-2 -7 3 0.5 2.9
-2 -7 3 1.2 1.5
-2 -7 3 3.1 2.4
1 7 -3 44.6 4.9
1 7 -3 42.8 5.8
-1 -7 3 49.1 5.3
-1 -7 3 50.79 6.1
-1 -7 3 47.9 4.8
0 7 -3 20.7 4.2
0 7 -3 30.6 3.9
0 -7 3 23.5 3.4
0 -7 3 22.9 4.8
-1 7 -3 7.1 2.8
-1 7 -3 11.6 3.8
-1 7 -3 5.6 1.6
1 -7 3 0.3 3
1 -7 3 4.3 1.4
1 -7 3 10.4 3.2
-2 7 -3 2.4 2.5
-2 7 -3 1 1.2
2 -7 3 7.2 3.9
2 -7 3 4.7 2.5
2 -7 3 0.4 1.2
-3 7 -3 -0.4 2.5
-3 7 -3 1.3 2.2
3 -7 3 1.6 3.5
3 -7 3 2 1.4
-4 7 -3 2.6 2.3
-4 7 -3 -0.1 2.1
-4 7 -3 -0.6 2.2
4 -7 3 -0.4 4
4 -7 3 5.3 2.2
-5 7 -3 6.1 2.5
5 6 -3 3.7 2.9
5 6 -3 -1 2.4
-5 -6 3 3.1 2.2
-5 -6 3 -1.5 1.3
-5 -6 3 -2.8 2.2
4 6 -3 1.8 2.6
4 6 -3 -0.2 1.9
-4 -6 3 2.9 2.2
-4 -6 3 2.5 1.8
3 6 -3 28.9 5.3
3 6 -3 20.2 3.6
3 6 -3 21.9 4.3
-3 -6 3 32.9 4.8
-3 -6 3 25.2 3.3
-3 -6 3 28.6 4
2 6 -3 -0.6 5.7
2 6 -3 -1 1.6
2 6 -3 0.3 2.2
-2 -6 3 2.6 2
-2 -6 3 2.4 2.8
-2 -6 3 0.9 1.8
1 6 -3 3.8 2.4
1 6 -3 7.1 3.2
1 6 -3 2.7 1.7
-1 -6 3 6 2.4
-1 -6 3 6 3.3
-1 -6 3 7.7 2.1
0 6 -3 21.1 4
0 6 -3 13.6 2.3
0 6 -3 15.5 3.4
0 -6 3 17.1 4.3
0 -6 3 18.5 3.5
0 -6 3 16.6 2.5
-1 6 -3 6 2.7
-1 6 -3 2.6 2.6
-1 6 -3 3 1.3
1 -6 3 3.8 1.4
1 -6 3 5.8 2.4
1 -6 3 2.4 3
-2 6 -3 6.8 2.6
-2 6 -3 5.4 2.7
-2 6 -3 4.8 1.2
2 -6 3 5.2 3.8
2 -6 3 7 1.4
2 -6 3 8.8 2.7
-3 6 -3 -2.2 1.6
-3 6 -3 -0.7 1.8
-3 6 -3 0.6 2.3
3 -6 3 1.4 2.3
3 -6 3 -2 1
3 -6 3 -1.1 3
-4 6 -3 34.2 4
-4 6 -3 35.7 4.2
4 -6 3 37.9 5.4
4 -6 3 46.2 4
-5 6 -3 2.2 2
5 -6 3 -2.5 3.8
5 5 -3 4.6 2.7
5 5 -3 0.1 2.2
-5 -5 3 -0.5 1.3
4 5 -3 80.29 6.6
4 5 -3 66.29 7
4 5 -3 75.39 6.7
-4 -5 3 79.69 5.2
-4 -5 3 79.59 5.5
-4 -5 3 71.99 5.3
-4 -5 3 83.09 5.7
3 5 -3 21.6 3.3
3 5 -3 29.2 5
3 5 -3 27.4 4.6
-3 -5 3 33.9 4.5
-3 -5 3 24.4 3.5
-3 -5 3 28.7 3.5
2 5 -3 8.6 3.1
2 5 -3 6.3 2.7
2 5 -3 6.1 2
-2 -5 3 5.6 1.8
-2 -5 3 7.1 3
-2 -5 3 10.4 2.6
1 5 -3 3.3 1.6
1 5 -3 8.6 3
1 5 -3 5.3 2.6
-1 -5 3 3 2.7
-1 -5 3 6 2.2
-1 -5 3 5.1 1.8
0 5 -3 31.6 3.2
0 5 -3 29.4 4.3
0 5 -3 29.7 4.1
0 -5 3 32.9 4
0 -5 3 32.2 3.9
0 -5 3 28 4.6
-1 5 -3 38.6 4.2
-1 5 -3 44 4.5
-1 5 -3 43.9 3.1
1 -5 3 38 2.8
1 -5 3 39.3 4.2
1 -5 3 39.8 5
-2 5 -3 67.99 3.2
-2 5 -3 72.49 5.5
-2 5 -3 72.19 5.2
2 -5 3 62.19 6.3
2 -5 3 73.09 5.4
2 -5 3 67.39 3.8
-3 5 -3 23.1 3.4
-3 5 -3 23.9 4.4
-3 5 -3 16.9 5
3 -5 3 20.1 2.6
3 -5 3 28.2 4.7
3 -5 3 24.3 4
3 -5 3 28.1 4.8
-4 5 -3 20.6 3.4
-4 5 -3 21.2 3
4 -5 3 21.2 4.4
4 -5 3 22.1 4
4 -5 3 17.6 2.6
-5 5 -3 0.3 1.8
5 -5 3 -5.1 2.8
-6 5 -3 0.1 2.1
6 -5 3 3.7 4
6 4 -3 1.4 2.4
6 4 -3 2.3 2.4
-6 -4 3 1.8 2.1
-6 -4 3 0.4 1.6
5 4 -3 1.8 2.3
5 4 -3 2.8 3.8
5 4 -3 3.1 2.3
-5 -4 3 -0.8 1.3
-5 -4 3 -0.6 1.7
4 4 -3 7.8 2.7
4 4 -3 4.3 3.6
4 4 -3 5.2 2
-4 -4 3 7.4 2.1
-4 -4 3 4.8 1.7
-4 -4 3 5.4 2.1
-4 -4 3 8.9 1.9
-4 -4 3 4.6 1.8
3 4 -3 21.1 3.5
3 4 -3 13.2 2.5
3 4 -3 28 4.2
-3 -4 3 15.9 2.7
-3 -4 3 24 3.6
-3 -4 3 21.8 2.9
-3 -4 3 17.7 2.7
2 4 -3 3.6 2.4
2 4 -3 1.4 1.4
2 4 -3 3.4 2
-2 -4 3 1 1.1
-2 -4 3 4.8 2.3
-2 -4 3 2.9 1.7
1 4 -3 121.19 6.7
1 4 -3 128.39 6.7
1 4 -3 134.09 6.2
-1 -4 3 133.29 6.4
-1 -4 3 127.49 7.5
-1 -4 3 128.89 6.7
0 4 -3 12.1 2.3
0 4 -3 7.9 1.4
0 -4 3 11 1.6
0 -4 3 13.5 2.8
-1 4 -3 270.57 9.1
-1 4 -3 280.47 10.7
-1 4 -3 283.97 10.8
1 -4 3 311.47 11.6
1 -4 3 265.17 10.7
1 -4 3 269.77 8.9
1 -4 3 275.27 9.1
-2 4 -3 43.9 3.9
-2 4 -3 45.2 4
2 -4 3 46.4 4.1
2 -4 3 45.4 2.9
2 -4 3 57.29 5.8
-3 4 -3 43.2 3.8
-3 4 -3 41.2 3.8
-3 4 -3 46.4 3.9
3 -4 3 45.2 4.3
3 -4 3 43.3 5.4
3 -4 3 49.99 3.4
-4 4 -3 108.39 6.2
-4 4 -3 119.69 5.3
-4 4 -3 105.99 6
-4 4 -3 127.39 5.5
4 -4 3 100.49 7.3
4 -4 3 104.79 5.9
-5 4 -3 0.4 1.4
-5 4 -3 -0.9 1.3
5 -4 3 0.3 2.9
5 -4 3 -2.9 3.1
-6 4 -3 4 2.4
6 -4 3 3 3.9
6 3 -3 4.3 2.3
6 3 -3 0.6 2.2
6 3 -3 -2.4 4
-6 -3 3 -0.4 1.6
-6 -3 3 3.2 1.8
5 3 -3 91.99 8.2
5 3 -3 75.99 5.7
5 3 -3 70.99 6.5
5 3 -3 80.19 6.3
-5 -3 3 76.79 5.8
-5 -3 3 74.19 5.5
-5 -3 3 81.99 6
4 3 -3 105.09 6.3
4 3 -3 109.89 6.9
4 3 -3 113.79 6.9
-4 -3 3 112.19 6.6
-4 -3 3 114.39 6.2
-4 -3 3 112.19 6.3
3 3 -3 219.58 9.6
3 3 -3 221.58 9.5
3 3 -3 223.28 9.3
-3 -3 3 230.98 9.4
-3 -3 3 228.68 8.4
-3 -3 3 219.68 8.1
-3 -3 3 220.08 8.8
-3 -3 3 222.48 8.9
2 3 -3 1321.97 39
2 3 -3 1304.27 39.1
2 3 -3 1309.17 39
-2 -3 3 1395.56 38.8
-2 -3 3 1382.86 39.2
-2 -3 3 1319.37 38.4
1 3 -3 770.12 23.8
1 3 -3 781.02 23.8
1 3 -3 782.02 23.5
-1 -3 3 770.12 23.6
-1 -3 3 815.32 23.9
-1 -3 3 779.32 23.4
0 3 -3 3.9 1.7
0 3 -3 4.7 1.5
0 3 -3 2.5 0.9
0 -3 3 6.1 1.9
0 -3 3 3.9 1
0 -3 3 4.6 1.5
-1 3 -3 69.49 3
-1 3 -3 69.59 4.3
-1 3 -3 68.69 4.2
1 -3 3 77.09 4.7
1 -3 3 67.19 4.2
1 -3 3 71.79 2.9
-2 3 -3 10.3 2
-2 3 -3 13.1 2.3
-2 3 -3 10.5 1.5
2 -3 3 9.7 2.1
2 -3 3 9 1.3
2 -3 3 13.6 2.7
-3 3 -3 146.89 6.5
-3 3 -3 157.48 6.7
-3 3 -3 151.78 6.7
-3 3 -3 152.18 6.6
3 -3 3 152.08 6.5
3 -3 3 161.18 7.7
-4 3 -3 -0.5 1.3
-4 3 -3 0.2 1.1
-4 3 -3 -0.7 1.1
4 -3 3 1.6 1.3
4 -3 3 -1.6 2.2
4 -3 3 0 2.3
-5 3 -3 6 1.7
5 -3 3 9.3 3.3
5 -3 3 9.7 3.6
-6 3 -3 0.5 1.6
6 -3 3 -0.3 2.8
6 -3 3 -1.6 3.1
6 2 -3 -2.5 3.4
6 2 -3 0.6 1.9
6 2 -3 3.5 2.1
-6 -2 3 -3.4 1.5
-6 -2 3 0.1 1.4
5 2 -3 2.3 2.2
5 2 -3 6.5 2.4
5 2 -3 7.2 2.2
5 2 -3 -1.1 1.6
-5 -2 3 1.7 1.6
-5 -2 3 4.3 2
-5 -2 3 3.4 1.7
4 2 -3 21.7 3.2
4 2 -3 19.3 3.5
4 2 -3 27.2 3.6
4 2 -3 15.2 3.7
-4 -2 3 26.1 3.3
-4 -2 3 17 2.5
-4 -2 3 17.1 2.4
3 2 -3 61.29 4.3
3 2 -3 62.39 4.4
3 2 -3 65.49 4.1
-3 -2 3 63.79 4
-3 -2 3 65.89 4.3
2 2 -3 139.69 6.1
2 2 -3 141.79 6
2 2 -3 149.99 6.4
-2 -2 3 140.29 6.2
-2 -2 3 145.99 5.9
-2 -2 3 155.68 5.8
-2 -2 3 141.59 5.5
-2 -2 3 139.89 5.6
1 2 -3 221.08 7.9
1 2 -3 221.08 7.8
1 2 -3 223.98 7.8
-1 -2 3 213.78 7.7
-1 -2 3 216.58 7.6
-1 -2 3 219.48 7.7
0 2 -3 1263.27 36.3
0 2 -3 1281.47 36.4
0 2 -3 1299.17 35.7
0 -2 3 1314.97 36.5
0 -2 3 1236.48 36.2
-1 2 -3 70.69 2.7
-1 2 -3 65.99 3.7
-1 2 -3 64.79 3.7
1 -2 3 66.89 3.7
1 -2 3 68.49 4
1 -2 3 65.19 2.6
-2 2 -3 239.78 8
-2 2 -3 250.87 8.2
-2 2 -3 242.98 7
-2 2 -3 241.88 8.7
-2 2 -3 235.38 8.6
2 -2 3 240.68 9
2 -2 3 233.48 8
-3 2 -3 873.01 26
-3 2 -3 860.71 25.7
-3 2 -3 877.71 25.6
-3 2 -3 864.51 25.6
3 -2 3 873.41 26.5
3 -2 3 860.81 26.5
-4 2 -3 77.39 3.3
-4 2 -3 87.09 5.2
-4 2 -3 82.29 4.1
-4 2 -3 86.19 4.1
4 -2 3 77.89 8.4
4 -2 3 89.59 5.2
4 -2 3 85.89 5.8
-5 2 -3 19.7 3
5 -2 3 31.2 4
5 -2 3 26.1 4.4
5 -2 3 27.3 4.5
-6 2 -3 9 2.7
6 -2 3 8.4 3.5
6 -2 3 8.1 3.3
7 1 -3 5.4 3.8
7 1 -3 -2.8 2.1
-7 -1 3 2.7 2.2
6 1 -3 7.2 2.1
6 1 -3 3.1 2.1
6 1 -3 -2.6 2.9
-6 -1 3 9.1 2.9
-6 -1 3 6.6 2.3
5 1 -3 -3.1 3.3
5 1 -3 -4.2 1.7
5 1 -3 -2 1.2
5 1 -3 -0.7 2.2
5 1 -3 0.4 1.5
-5 -1 3 0.9 1.3
-5 -1 3 -0.6 1.2
4 1 -3 60.29 5
4 1 -3 58.39 4.4
4 1 -3 62.19 4.2
4 1 -3 59.99 4.6
4 1 -3 58.69 3.7
-4 -1 3 55.09 4.2
-4 -1 3 61.69 4.3
-4 -1 3 65.49 4.6
3 1 -3 1455.85 41.6
3 1 -3 1462.75 43
3 1 -3 1472.65 42.1
3 1 -3 1433.36 40.7
3 1 -3 1445.16 40.8
-3 -1 3 1462.65 41.8
-3 -1 3 1470.95 42
2 1 -3 118.49 4.6
2 1 -3 127.19 5.4
2 1 -3 119.69 4.7
-2 -1 3 130.09 5.1
-2 -1 3 128.99 5.2
-2 -1 3 127.99 5.3
1 1 -3 -0.4 0.8
1 1 -3 -0.4 1.1
1 1 -3 0.1 0.7
1 1 -3 0.1 0.4
-1 -1 3 0.5 0.5
-1 -1 3 -0.5 0.8
-1 -1 3 0.4 0.9
0 1 -3 131.79 5
0 1 -3 133.39 5
0 -1 3 127.59 5
0 -1 3 126.89 4.9
-1 1 -3 465.25 12.9
-1 1 -3 468.75 14.3
-1 1 -3 468.55 13.3
-1 1 -3 461.65 14.2
1 -1 3 452.55 14.2
1 -1 3 463.85 14.3
-2 1 -3 87.49 4.3
-2 1 -3 82.49 3.3
-2 1 -3 88.19 3.5
-2 1 -3 90.49 4
-2 1 -3 86.39 4.2
2 -1 3 86.09 3.5
2 -1 3 87.69 4.5
2 -1 3 80.39 4.4
-3 1 -3 1.2 1.3
-3 1 -3 0.8 1
-3 1 -3 1.8 0.8
-3 1 -3 2.5 1.4
3 -1 3 2 0.9
3 -1 3 -0.2 1.7
3 -1 3 2.7 1.7
3 -1 3 1.1 1.1
3 -1 3 1.4 1.7
-4 1 -3 2.3 1.4
-4 1 -3 4.9 1.3
-4 1 -3 1.5 1.3
-4 1 -3 1.7 1.1
4 -1 3 -0.2 2.1
4 -1 3 1.7 1.5
4 -1 3 1.2 1.2
4 -1 3 0.8 1.3
4 -1 3 2.6 2.3
-5 1 -3 13.7 2.5
-5 1 -3 18.6 2.3
5 -1 3 24.8 3.3
5 -1 3 14.3 4
5 -1 3 20.3 2.6
5 -1 3 30.6 4.6
5 -1 3 31.3 4.6
-6 1 -3 10.2 1.8
-6 1 -3 13.4 3.1
6 -1 3 16.1 3.9
6 -1 3 21.8 3.8
6 -1 3 20.4 4.2
7 0 -3 2.9 2.1
7 0 -3 0.4 1.8
-7 0 3 4.4 2.4
6 0 -3 1.6 1.6
6 0 -3 4.6 1.9
-6 0 3 2.7 1.7
5 0 -3 -0.1 1.2
5 0 -3 -0.8 1.2
5 0 -3 0.9 1.7
5 0 -3 1.7 1.6
5 0 -3 0.3 1.7
-5 0 3 0.3 1.6
-5 0 3 -1.2 1.1
4 0 -3 0.1 1.3
4 0 -3 -0.2 1
4 0 -3 -0.2 1.2
4 0 -3 -1 1.5
4 0 -3 -0.3 1.1
-4 0 3 1 1.4
-4 0 3 -0.6 1
3 0 -3 1348.67 39.7
3 0 -3 1407.26 39.6
3 0 -3 1358.86 40.6
3 0 -3 1406.16 39.4
-3 0 3 1388.56 39.9
-3 0 3 1367.06 39.7
2 0 -3 91.19 4.1
2 0 -3 89.59 4
2 0 -3 87.69 4.6
2 0 -3 84.99 4
-2 0 3 93.29 4.7
-2 0 3 86.39 4.1
-2 0 3 90.79 4
1 0 -3 733.43 19.3
1 0 -3 684.03 19.7
1 0 -3 703.13 19.8
1 0 -3 688.03 19.3
1 0 -3 686.33 20.4
-1 0 3 701.53 19.8
-1 0 3 698.63 19.8
-1 0 3 696.73 20.5
0 0 -3 34.4 2.2
0 0 -3 36.2 2.3
0 0 -3 34.1 1.6
0 0 3 32.9 2.1
0 0 3 37.8 1.7
0 0 3 36.7 2.3
-1 0 -3 1212.18 34.9
-1 0 -3 1269.27 35.1
-1 0 -3 1260.97 34.5
1 0 3 1251.47 35.1
1 0 3 1206.28 35
-2 0 -3 0.9 1.1
-2 0 -3 1.1 0.8
-2 0 -3 1.2 1.1
2 0 3 1 0.8
2 0 3 4 1.6
2 0 3 0.2 1.2
2 0 3 1.8 0.9
2 0 3 1.9 0.8
-3 0 -3 684.73 20.3
-3 0 -3 683.53 20.6
-3 0 -3 661.33 20.5
3 0 3 665.53 20.4
3 0 3 670.43 21.3
3 0 3 688.73 20.3
3 0 3 680.63 21.3
3 0 3 676.93 20.4
-4 0 -3 1.2 1.5
-4 0 -3 0.4 1.2
-4 0 -3 1.9 1.4
-4 0 -3 -0.5 1.1
4 0 3 -1.8 1.2
4 0 3 2.3 2.1
4 0 3 1.6 1.4
4 0 3 3 1.6
4 0 3 0.7 2.2
-5 0 -3 189.98 9.5
-5 0 -3 194.48 8.4
5 0 3 206.88 9.7
5 0 3 184.38 8.7
5 0 3 183.38 9.7
5 0 3 186.18 8.7
5 0 3 195.18 8.4
-6 0 -3 -3.1 1.4
-6 0 -3 -1.5 1.5
6 0 3 2.7 1.8
6 0 3 -1.6 1.5
6 0 3 0.1 2.2
6 0 3 -1 2.8
7 -1 -3 2.7 1.7
7 -1 -3 0.1 2.2
6 -1 -3 19.5 3
6 -1 -3 21.8 3
-6 1 3 15.4 2.8
5 -1 -3 2.3 1.5
5 -1 -3 2.7 1.4
5 -1 -3 3.4 1.8
-5 1 3 1.8 1.1
4 -1 -3 19.7 2.6
4 -1 -3 15.9 2.1
4 -1 -3 17 2.7
4 -1 -3 17.9 3.1
-4 1 3 14.3 2.4
3 -1 -3 528.05 17.9
3 -1 -3 542.35 16.4
3 -1 -3 529.85 17.3
3 -1 -3 541.85 17
-3 1 3 558.04 18.6
-3 1 3 534.45 18.1
-3 1 3 527.75 18.2
2 -1 -3 80.09 3.9
2 -1 -3 72.99 4.2
2 -1 -3 82.49 3.8
-2 1 3 86.69 4.1
-2 1 3 85.79 4.6
-2 1 3 84.49 3.9
1 -1 -3 293.87 8.7
1 -1 -3 292.97 8.7
1 -1 -3 285.27 8.6
1 -1 -3 276.77 9.6
1 -1 -3 291.57 8.9
-1 1 3 315.07 10
-1 1 3 288.87 8.9
0 -1 -3 867.11 22.9
0 -1 -3 851.31 24.2
0 -1 -3 806.92 24
0 -1 -3 857.11 24.2
0 1 3 858.91 24.2
0 1 3 836.52 24.1
-1 -1 -3 1029.5 30.1
-1 -1 -3 1048.4 29.7
-1 -1 -3 1007.1 30
1 1 3 1076.69 30.3
1 1 3 1042.8 29.7
1 1 3 1051.79 28.5
1 1 3 1064.69 30.2
-2 -1 -3 0.1 0.7
-2 -1 -3 -1.5 1.1
-2 -1 -3 -0.3 0.8
-2 -1 -3 -0.2 1.4
2 1 3 1 0.7
2 1 3 -1 1.3
2 1 3 1.6 1.1
2 1 3 -2 1.4
-3 -1 -3 1.1 1.3
-3 -1 -3 -0.6 1.3
-3 -1 -3 0 0.9
3 1 3 0.1 0.9
3 1 3 1.1 1.2
3 1 3 -1.5 1.9
3 1 3 -0.5 1.6
-4 -1 -3 435.26 14.6
-4 -1 -3 443.76 16
-4 -1 -3 436.66 14.7
-4 -1 -3 444.66 15.2
4 1 3 428.06 15.3
4 1 3 441.36 16.4
4 1 3 449.26 15.4
4 1 3 452.85 14.8
4 1 3 433.76 16
-5 -1 -3 126.19 5.6
-5 -1 -3 126.39 7.6
-5 -1 -3 127.09 6.9
-5 -1 -3 129.09 5.5
5 1 3 129.99 6.7
5 1 3 125.29 7.9
5 1 3 122.59 7.1
5 1 3 123.69 7.9
5 1 3 119.89 7
-6 -1 -3 4.6 3
-6 -1 -3 4.9 2.1
6 1 3 3.4 2.1
6 1 3 2.8 2.5
-7 2 3 3.2 2.3
6 -2 -3 0.4 1.2
6 -2 -3 2.1 1.8
-6 2 3 0.7 1.7
5 -2 -3 5.9 1.4
5 -2 -3 5.4 1.6
5 -2 -3 5.5 3.3
-5 2 3 6.6 2.3
4 -2 -3 64.29 4.4
4 -2 -3 54.99 4.2
4 -2 -3 56.79 4.8
4 -2 -3 56.99 3.4
-4 2 3 57.79 5.1
-4 2 3 55.39 4.5
3 -2 -3 225.08 8.9
3 -2 -3 226.48 7.8
3 -2 -3 233.08 8.7
3 -2 -3 221.18 9.5
-3 2 3 230.88 9
-3 2 3 244.18 11.3
2 -2 -3 88.69 4.3
2 -2 -3 85.39 3.6
2 -2 -3 83.59 3.4
2 -2 -3 90.99 4.1
-2 2 3 90.19 4.9
1 -2 -3 131.69 5.1
1 -2 -3 139.39 5.3
1 -2 -3 137.79 5.1
-1 2 3 130.39 5.9
-1 2 3 133.59 4.8
-1 2 3 133.59 4.9
0 -2 -3 315.77 10.3
0 -2 -3 294.17 9.8
0 -2 -3 299.67 10.1
0 2 3 312.87 10.2
0 2 3 301.37 9.9
0 2 3 290.27 10
-1 -2 -3 3.4 1.6
-1 -2 -3 3.7 1.5
-1 -2 -3 3.1 1.1
-1 -2 -3 1.9 0.6
1 2 3 1.3 1.2
1 2 3 4.1 1.8
1 2 3 3.2 1.1
-2 -2 -3 22.2 2.8
-2 -2 -3 21.5 1.7
-2 -2 -3 20.1 2.5
-2 -2 -3 22.6 3.1
2 2 3 20.9 3.4
2 2 3 22.8 2.8
2 2 3 21.6 3
-3 -2 -3 12.3 2.5
-3 -2 -3 15.1 2.7
-3 -2 -3 15.3 1.8
-3 -2 -3 10.2 2
3 2 3 12.1 3.1
3 2 3 9.5 2.1
3 2 3 11.1 2.6
-4 -2 -3 149.79 6.7
-4 -2 -3 159.28 8.2
-4 -2 -3 143.09 7.4
4 2 3 161.78 8.1
4 2 3 156.28 8.4
4 2 3 134.39 8.4
-5 -2 -3 7.2 2.3
-5 -2 -3 14.2 2.3
-5 -2 -3 7.2 2.1
-5 -2 -3 8.3 2.1
5 2 3 11.2 2.6
5 2 3 6.3 2.4
5 2 3 10.2 3.7
5 2 3 9.5 2.8
-6 -2 -3 -1.1 1.9
6 2 3 5.8 2.4
6 2 3 -0.6 2.2
6 2 3 2.8 2.8
6 -3 -3 2.9 2.3
6 -3 -3 1.6 2.1
-6 3 3 0.8 1.6
5 -3 -3 -0.4 1.7
5 -3 -3 2.2 1.5
5 -3 -3 0.3 0.9
-5 3 3 1.3 1.9
4 -3 -3 89.39 4.8
4 -3 -3 83.79 3.9
4 -3 -3 80.89 5.3
4 -3 -3 85.49 5.2
4 -3 -3 80.49 4.2
-4 3 3 85.39 6.2
3 -3 -3 84.19 4.7
3 -3 -3 84.59 4.1
3 -3 -3 81.89 4.9
-3 3 3 91.29 5.8
2 -3 -3 314.67 10.7
2 -3 -3 323.17 10.4
2 -3 -3 347.17 11.2
2 -3 -3 326.07 10.8
2 -3 -3 345.77 11.2
2 -3 -3 312.07 12.3
-2 3 3 321.87 12.2
1 -3 -3 0.6 1.1
1 -3 -3 0.1 0.8
1 -3 -3 -0.7 1.5
-1 3 3 0.2 1
-1 3 3 -1.2 1.3
0 -3 -3 46.3 3.5
0 -3 -3 52.29 4.2
0 -3 -3 47.4 3.1
0 3 3 46.1 3.3
0 3 3 43.6 3.4
0 3 3 52.49 3.6
-1 -3 -3 79.59 4.4
-1 -3 -3 73.49 4.8
-1 -3 -3 84.49 5.3
1 3 3 79.79 4.6
1 3 3 81.39 5
-2 -3 -3 241.08 9.5
-2 -3 -3 233.28 9.6
-2 -3 -3 223.38 7.7
2 3 3 242.48 9.6
2 3 3 232.28 10.1
2 3 3 244.38 10.5
-3 -3 -3 659.13 21.5
-3 -3 -3 646.84 21.4
-3 -3 -3 678.43 21.8
-3 -3 -3 626.84 19.6
3 3 3 658.73 22.2
3 3 3 649.54 22.6
3 3 3 674.73 21.9
-4 -3 -3 22.7 3
-4 -3 -3 27 3.9
-4 -3 -3 28.4 4
-4 -3 -3 30.2 4.1
4 3 3 24.7 5.1
4 3 3 28.8 4.5
-5 -3 -3 4.4 2
-5 -3 -3 1.8 1.9
-5 -3 -3 2.2 1.5
5 3 3 0.8 2
5 3 3 0.2 2.3
-6 -3 -3 1.9 1.4
6 3 3 -3.2 2.2
6 3 3 6.3 3
-6 4 3 -2.2 1.9
5 -4 -3 7.4 2.1
5 -4 -3 2.7 2.5
-5 4 3 1.9 2.1
4 -4 -3 8.6 1.1
4 -4 -3 8.6 2.3
4 -4 -3 5.1 2.5
4 -4 -3 7.2 1.9
4 -4 -3 8 1.2
4 -4 -3 10 3
-4 4 3 9.2 2.8
3 -4 -3 25 2.3
3 -4 -3 26.6 3.2
3 -4 -3 22.6 2.9
3 -4 -3 18.1 3.3
3 -4 -3 29.3 3.2
-3 4 3 24.1 3.7
2 -4 -3 3.2 1.7
2 -4 -3 3.7 2.4
-2 4 3 4.6 1.6
-2 4 3 3.4 1.3
-2 4 3 3 1.9
1 -4 -3 69.99 4.7
1 -4 -3 69.79 4
1 -4 -3 79.89 5.4
-1 4 3 67.79 4.2
-1 4 3 70.29 4.6
-1 4 3 70.99 4.3
0 -4 -3 48.4 4.1
0 -4 -3 54.39 3.7
0 -4 -3 49.8 4.8
0 4 3 54.09 3.9
0 4 3 60.59 5.3
0 4 3 49.9 4.2
-1 -4 -3 119.69 6.7
-1 -4 -3 121.29 6.1
-1 -4 -3 121.79 6.9
1 4 3 126.49 7
1 4 3 119.49 6.3
1 4 3 124.29 6.9
-2 -4 -3 26.4 3.8
-2 -4 -3 22.8 2.1
-2 -4 -3 26.8 3.9
-2 -4 -3 15.9 2.2
2 4 3 16.3 2.5
2 4 3 16.6 3.8
2 4 3 19.6 3.4
-3 -4 -3 121.39 7.6
-3 -4 -3 124.69 7
-3 -4 -3 118.49 5.4
-3 -4 -3 115.39 7.1
3 4 3 121.59 8
3 4 3 132.99 7.7
-4 -4 -3 6.6 1.6
-4 -4 -3 4.4 1.9
-4 -4 -3 8.7 2.9
-4 -4 -3 8.1 2.6
4 4 3 5.4 2.8
4 4 3 7.2 4.2
4 4 3 7.7 2.6
-5 -4 -3 0.3 1.3
-5 -4 -3 0.5 1.9
5 4 3 0.1 2.3
5 4 3 -1.3 2.4
-6 -4 -3 3.7 2.4
-6 -4 -3 1.1 3.6
6 4 3 1.5 4.2
6 4 3 -0.2 2.6
6 -5 -3 1.2 2.3
-6 5 3 -2.1 2
5 -5 -3 1.3 3
5 -5 -3 7.6 2.4
-5 5 3 3.2 2.4
4 -5 -3 24.9 3.8
4 -5 -3 19.8 3.3
4 -5 -3 20.7 3
-4 5 3 22.5 4.2
3 -5 -3 4.7 4.5
3 -5 -3 1.7 1.8
3 -5 -3 0.5 1
3 -5 -3 1.1 1.3
-3 5 3 2.1 2.3
2 -5 -3 108.59 5.3
2 -5 -3 113.19 6.4
-2 5 3 118.59 5.7
-2 5 3 115.09 5.8
1 -5 -3 12 2.7
1 -5 -3 7 2.3
1 -5 -3 7.2 3
-1 5 3 8 1.9
-1 5 3 11.2 3
-1 5 3 6.4 3.4
0 -5 -3 100.09 6.3
0 -5 -3 100.59 7.2
0 -5 -3 90.89 5.5
0 5 3 99.99 5.7
0 5 3 95.79 6.4
0 5 3 103.59 6.7
-1 -5 -3 91.19 7
-1 -5 -3 80.39 5.5
-1 -5 -3 91.49 6.3
1 5 3 88.39 6.7
1 5 3 83.29 5.7
1 5 3 85.99 6.5
-2 -5 -3 85.69 6.8
-2 -5 -3 94.69 6.1
-2 -5 -3 88.89 6.5
2 5 3 95.19 6.5
2 5 3 93.19 7
2 5 3 69.29 6.6
-3 -5 -3 412.26 14
-3 -5 -3 440.96 16.9
-3 -5 -3 432.66 17
-3 -5 -3 483.45 20
3 5 3 441.06 17.6
3 5 3 432.66 17
3 5 3 392.66 17.5
-4 -5 -3 39.8 4.5
-4 -5 -3 34.6 3.2
-4 -5 -3 30.1 4.7
4 5 3 34 5.6
4 5 3 26.5 4
-5 -5 -3 7.1 2.8
-5 -5 -3 2.5 1.4
-5 -5 -3 0.9 2.5
5 5 3 5.6 3.2
5 5 3 2.4 2.6
6 -6 -3 10.5 4.9
-6 6 3 -0.9 2.8
5 -6 -3 0.7 3.3
5 -6 -3 5.1 2.4
5 -6 -3 1.2 3.3
-5 6 3 1.9 2.4
4 -6 -3 7.8 2.5
-4 6 3 5.9 3.1
3 -6 -3 198.58 9.4
3 -6 -3 190.38 10.1
3 -6 -3 181.78 7.3
-3 6 3 188.08 10.6
2 -6 -3 112.69 7
2 -6 -3 121.69 6.9
-2 6 3 111.39 8.5
-2 6 3 133.09 9.1
1 -6 -3 3.3 2.3
1 -6 -3 1.1 3.1
1 -6 -3 1.5 1.2
-1 6 3 0.8 2
-1 6 3 0.5 2.4
-1 6 3 0.3 1.7
0 -6 -3 3 3.3
0 -6 -3 2.1 1.7
0 -6 -3 2.1 2.3
0 6 3 0.6 2.4
0 6 3 3.7 2
0 6 3 3.1 2.9
-1 -6 -3 43 4.4
-1 -6 -3 45 5
-1 -6 -3 44.6 5.8
1 6 3 40.3 4.9
1 6 3 44.1 5.5
-2 -6 -3 44.3 5.3
-2 -6 -3 37.7 4.3
-2 -6 -3 43.2 5.7
2 6 3 37 5
2 6 3 42 6
-3 -6 -3 28.9 3
-3 -6 -3 36.6 5.4
-3 -6 -3 34.4 5.1
3 6 3 32.7 4.6
3 6 3 35.1 5.3
-4 -6 -3 -0.5 2.4
-4 -6 -3 -0.6 1.1
4 6 3 1.2 2.1
4 6 3 2.7 2.9
-5 -6 -3 7.3 2.1
5 6 3 11.2 4.1
5 6 3 1.3 3
-5 7 3 -1.7 2.3
4 -7 -3 2.9 2.5
4 -7 -3 -2.3 3.4
-4 7 3 -1.9 2.1
3 -7 -3 -0.5 2.9
3 -7 -3 8.4 3
3 -7 -3 4.5 1.5
-3 7 3 7 2
-3 7 3 6.7 2.2
-3 7 3 3.3 2.9
2 -7 -3 0.8 1.2
2 -7 -3 3.6 2.3
2 -7 -3 2.3 3.1
-2 7 3 1.8 2.7
-2 7 3 0.6 1.8
1 -7 -3 -1.9 2
1 -7 -3 -0.7 2.9
1 -7 -3 0.2 1.3
-1 7 3 -0.7 2
-1 7 3 0.3 2.8
-1 7 3 0.9 1.6
0 -7 -3 4 3.3
0 -7 -3 0.2 1.4
0 7 3 -1.8 4.3
0 7 3 2.4 2.5
0 7 3 0.4 1.7
-1 -7 -3 6.3 3.6
-1 -7 -3 4.9 1.9
1 7 3 6.8 2.6
1 7 3 8.6 3.3
2 7 3 441.96 18.9
2 7 3 430.56 17.6
-3 -7 -3 -1.7 1.3
-3 -7 -3 -0.3 2.4
3 7 3 1.7 2.7
3 7 3 1.5 2.5
-4 -7 -3 1.2 1.4
-4 -7 -3 1.6 3
4 7 3 -0.9 2.3
4 7 3 5.7 3.5
3 -8 -3 3.9 1.7
3 -8 -3 2.9 3.9
-3 8 3 5.3 2.2
-3 8 3 4.7 3.4
2 -8 -3 -0.9 4.3
2 -8 -3 -0.8 1.4
-2 8 3 -0.3 2.3
-2 8 3 -2.5 2.7
1 -8 -3 -2.2 3.7
1 -8 -3 -0.8 1.5
-1 8 3 4.7 3.6
-1 8 3 1.6 2.4
-1 8 3 -2.1 1.8
0 -8 -3 1.1 4.8
0 -8 -3 1 1.7
0 8 3 0.2 2.1
0 8 3 2.3 2.8
-1 -8 -3 0.6 3.3
1 8 3 0.5 2.3
1 8 3 1.2 3.2
-2 -8 -3 -1.3 2.9
2 8 3 3.9 2.6
2 8 3 1.5 3.1
-3 -8 -3 9 2.1
-3 -8 -3 2.3 3.3
3 8 3 7.6 3.2
3 8 3 17.2 4.8
3 -9 -3 -1.8 1.7
-3 9 3 0.3 3
-3 9 3 -1.1 3.3
-3 9 3 3.9 2.4
2 -9 -3 5 4.6
-2 9 3 -5.4 3.9
-2 9 3 0.1 2.7
1 -9 -3 -6.5 3.9
-1 9 3 -0.2 2
-1 9 3 -4.1 2.4
0 -9 -3 0 3.7
0 9 3 3.3 3.1
-1 -9 -3 3.6 4.3
1 9 3 15.7 3.9
1 9 3 24.5 5.2
2 9 3 15.1 4.7
2 9 3 16.8 3.9
0 10 -4 -1.3 2.7
0 10 -4 -2.3 3.6
-1 10 -4 -0.3 2.5
-1 10 -4 3.5 3.5
1 -10 4 -5.5 3.6
2 9 -4 5.7 2.7
2 9 -4 8.7 3.9
-2 -9 4 3.3 4.2
1 9 -4 2.7 3.3
1 9 -4 1.1 2.2
-1 -9 4 -0.2 3.8
0 9 -4 4 2.4
0 9 -4 -0.2 2.7
0 -9 4 -1.6 3.6
-1 9 -4 -1.5 2.8
-1 9 -4 -0.9 1.9
1 -9 4 -3.1 1.3
1 -9 4 -2 1.7
1 -9 4 4.9 3.9
-2 9 -4 1.8 1.8
-2 9 -4 2.9 3
2 -9 4 -0.5 4.4
-3 9 -4 6.8 3.5
3 -9 4 2.2 2.3
3 8 -4 -1.6 2.3
3 8 -4 6.8 3.6
-3 -8 4 -0.3 3.1
2 8 -4 8.4 3.6
2 8 -4 13.3 3.4
-2 -8 4 3.9 4.3
1 8 -4 -1.8 1.8
-1 -8 4 -1.4 2.6
0 8 -4 3 2.9
0 8 -4 2.4 2
0 -8 4 -1.6 3.1
0 -8 4 6 2.1
-1 8 -4 0.6 2.5
-1 8 -4 -0.6 1.4
1 -8 4 -4.8 2.9
1 -8 4 -0.3 1.5
1 -8 4 -2.1 1.1
-2 8 -4 -0.3 1.4
-2 8 -4 -1.2 3.1
-2 8 -4 2.9 2.6
2 -8 4 2.1 1.4
2 -8 4 -1.3 5.1
-3 8 -4 9.5 3.3
3 -8 4 0.1 4.1
3 -8 4 12.4 2.4
-4 8 -4 -1.1 2.3
-4 8 -4 2.1 3.1
-4 8 -4 -2.3 2.3
4 -8 4 -5.5 4.1
4 -8 4 -0.6 2
4 7 -4 4.2 2.9
4 7 -4 -2 2.1
-4 -7 4 -0.2 2.4
-4 -7 4 0.2 2
-4 -7 4 1.9 1.7
3 7 -4 101.09 8.7
3 7 -4 84.19 7.3
-3 -7 4 82.09 6.3
-3 -7 4 76.09 7.2
2 7 -4 6 3.3
2 7 -4 2.6 2.1
-2 -7 4 2.4 3.1
-2 -7 4 4.6 2.4
-2 -7 4 1.6 2.2
1 7 -4 11.5 2.6
1 7 -4 15.9 3.7
-1 -7 4 17.2 3.4
-1 -7 4 21.5 4.6
-1 -7 4 11.3 3.3
0 7 -4 1.1 3.2
0 7 -4 1.3 2.6
0 7 -4 0.2 1.4
0 -7 4 3.3 1.6
0 -7 4 4.1 3.1
0 -7 4 3.8 2.5
-1 7 -4 -2.7 3.4
-1 7 -4 -2.6 2
-1 7 -4 0.5 1.2
1 -7 4 1.3 3.3
1 -7 4 0.6 1.2
1 -7 4 -1 1
-2 7 -4 10.2 3.1
-2 7 -4 8.3 3.1
-2 7 -4 7.9 1.7
2 -7 4 3.7 3.6
2 -7 4 13 3.6
2 -7 4 8.4 1.6
-3 7 -4 -0.1 2.8
-3 7 -4 3.3 2.2
3 -7 4 -3.7 3.5
3 -7 4 -0.3 1.3
-4 7 -4 3 2.3
-4 7 -4 -0.6 2.1
-4 7 -4 -2.3 2.5
4 -7 4 0.7 2.1
4 -7 4 1.9 5.8
-5 7 -4 3.4 2.5
5 6 -4 3.6 2.8
5 6 -4 1.1 2.3
-5 -6 4 3 2
-5 -6 4 2.3 1.9
-5 -6 4 -1.4 1.9
4 6 -4 6.6 3.2
4 6 -4 4.4 2.5
-4 -6 4 3.4 2
-4 -6 4 2.3 1.8
-4 -6 4 2.6 2.4
-4 -6 4 5.2 2.5
3 6 -4 29.7 4.3
3 6 -4 30.6 5.1
3 6 -4 27.3 5.3
-3 -6 4 32.7 4.9
-3 -6 4 41.8 4.4
2 6 -4 5.2 2.4
2 6 -4 7.2 3.9
2 6 -4 3.8 2.8
-2 -6 4 7.1 3.3
-2 -6 4 7.3 2.5
1 6 -4 26.7 4.3
1 6 -4 28 4.9
1 6 -4 27.4 3.9
-1 -6 4 23.3 3.4
-1 -6 4 26.9 4
-1 -6 4 24.6 4.5
0 6 -4 8.4 3
0 6 -4 5.2 3.1
0 6 -4 9.4 2
0 -6 4 2 2.9
0 -6 4 6.4 2.5
0 -6 4 7.5 1.9
-1 6 -4 70.59 6.1
-1 6 -4 62.59 5.9
-1 6 -4 66.09 4.2
1 -6 4 66.49 5.6
1 -6 4 67.69 4.2
1 -6 4 65.49 3.5
1 -6 4 51.99 6.2
-2 6 -4 22 2.4
-2 6 -4 30.2 4.7
-2 6 -4 23.4 3.8
2 -6 4 17.1 4.5
2 -6 4 24.8 2.6
2 -6 4 28.3 4.5
-3 6 -4 1.2 2.1
-3 6 -4 -0.5 1.8
-3 6 -4 -0.2 2.2
3 -6 4 -4.4 3
3 -6 4 -2.3 2
3 -6 4 -0.2 1.1
-4 6 -4 9 2.6
-4 6 -4 6.7 2.5
-4 6 -4 12.1 2.9
4 -6 4 6.7 2.9
4 -6 4 8 4.5
4 -6 4 4.5 1.9
-5 6 -4 5.3 2.5
5 -6 4 7.7 4.3
5 -6 4 7.6 4.3
5 5 -4 2.4 2.3
5 5 -4 5.3 2.6
-5 -5 4 -3.3 1.6
-5 -5 4 3.1 2.1
4 5 -4 3.4 3.8
4 5 -4 0.6 2
4 5 -4 2 2.5
-4 -5 4 1.6 2.8
-4 -5 4 5.7 2.2
-4 -5 4 1.6 1.8
-4 -5 4 5.2 2.1
3 5 -4 2.5 2
3 5 -4 5.9 2.6
3 5 -4 4.2 3.2
-3 -5 4 5.3 2.2
-3 -5 4 3.6 2.4
-3 -5 4 6.9 2.1
2 5 -4 133.79 7.5
2 5 -4 137.49 8.1
2 5 -4 130.19 7.9
-2 -5 4 142.49 7.8
-2 -5 4 125.89 6.9
-2 -5 4 123.79 7.1
1 5 -4 90.29 5.6
1 5 -4 91.29 6.3
1 5 -4 80.49 6
-1 -5 4 92.89 5.4
-1 -5 4 93.89 6.6
-1 -5 4 91.59 5.9
0 5 -4 77.59 5.8
0 5 -4 81.59 5.8
0 5 -4 80.39 4.7
0 -5 4 78.89 4.9
0 -5 4 77.09 5.6
0 -5 4 56.69 5.8
-1 5 -4 8.6 1.6
-1 5 -4 12.9 3.1
-1 5 -4 10 2.5
1 -5 4 6.9 1.2
1 -5 4 12.8 2.8
1 -5 4 11.8 3.6
-2 5 -4 -0.1 0.8
-2 5 -4 0.2 2.1
-2 5 -4 -0.5 1.7
2 -5 4 -2 2.6
2 -5 4 0.7 1.6
2 -5 4 0.9 0.9
-3 5 -4 1.9 1.7
-3 5 -4 2.9 2
-3 5 -4 2.7 2.2
3 -5 4 -0.2 1.1
3 -5 4 3 2.3
3 -5 4 0 2.8
-4 5 -4 14.8 2.8
-4 5 -4 12.2 2.5
4 -5 4 15.1 2.5
4 -5 4 16 4
-5 5 -4 -0.3 1.7
5 -5 4 -1.7 2.9
6 4 -4 4.6 2.7
6 4 -4 -2.2 1.9
-6 -4 4 0.4 1.7
-6 -4 4 -1.6 1.5
5 4 -4 -0.8 1.8
5 4 -4 1.4 2.2
5 4 -4 -0.1 3.9
-5 -4 4 -0.7 1.6
-5 -4 4 -1.3 1.5
4 4 -4 31.5 4.3
4 4 -4 29.1 4.2
4 4 -4 37 5.2
-4 -4 4 23.7 3.1
-4 -4 4 18 3
-4 -4 4 25.8 2.7
-4 -4 4 25.1 2.8
-4 -4 4 29.6 3.3
3 4 -4 25.7 4.2
3 4 -4 14.4 2.6
3 4 -4 19.2 3.5
-3 -4 4 20.5 3.4
-3 -4 4 24 3.4
-3 -4 4 25.2 3.3
-3 -4 4 24.7 2.9
-3 -4 4 24.4 3.1
2 4 -4 41.7 4.3
2 4 -4 37.8 4.4
2 4 -4 39.1 3.9
-2 -4 4 35.9 3.5
-2 -4 4 40.8 3.7
-2 -4 4 39.8 4.2
1 4 -4 46 4.9
1 4 -4 46.4 4.2
1 4 -4 58.99 4
-1 -4 4 54.89 4.7
-1 -4 4 54.39 3.8
0 4 -4 86.79 4.5
0 4 -4 89.89 5.5
0 4 -4 83.29 5.5
0 -4 4 96.99 6
0 -4 4 90.39 5.2
0 -4 4 85.99 4.5
-1 4 -4 28.1 2.3
-1 4 -4 37.5 3.8
-1 4 -4 33.3 3.8
1 -4 4 29.8 3.4
1 -4 4 33.3 2
-2 4 -4 1.7 0.7
-2 4 -4 6.5 3.3
-2 4 -4 0.3 1.8
2 -4 4 1.7 0.9
2 -4 4 2 1.8
2 -4 4 3.8 2.5
-3 4 -4 175.58 8.1
-3 4 -4 162.18 7.4
-3 4 -4 167.58 7.8
3 -4 4 169.68 7.1
3 -4 4 168.18 8.4
3 -4 4 180.68 9.2
-4 4 -4 28 3.2
-4 4 -4 25.2 3
-4 4 -4 27.6 3.3
4 -4 4 22.8 4.3
4 -4 4 23.2 4.2
-5 4 -4 -2.4 1.2
-5 4 -4 0.7 1.8
5 -4 4 -0.3 2.6
5 -4 4 3.2 3.4
-6 4 -4 2.7 2
6 -4 4 -2.9 3.2
6 3 -4 1.9 2
6 3 -4 -4.7 3.6
6 3 -4 0.9 1.8
-6 -3 4 0.6 1.9
-6 -3 4 -0.9 1.6
5 3 -4 51.79 5.8
5 3 -4 68.69 5.9
5 3 -4 62.09 5.1
-5 -3 4 60.89 5
-5 -3 4 67.59 5.3
-5 -3 4 48.6 5.6
4 3 -4 40.8 4.9
4 3 -4 41.9 4.6
4 3 -4 48.7 4.7
-4 -3 4 46 4.4
-4 -3 4 47.6 4.2
-4 -3 4 47.7 4.1
3 3 -4 1.1 1.3
3 3 -4 1.4 2.3
3 3 -4 1.9 1.8
-3 -3 4 2.5 1.6
-3 -3 4 2 1.3
-3 -3 4 1.1 1.1
-3 -3 4 0 1.2
-3 -3 4 0.5 1.7
2 3 -4 10 2.2
2 3 -4 10.5 2.3
2 3 -4 12.3 2.6
-2 -3 4 11.1 1.6
-2 -3 4 7.2 1.6
-2 -3 4 10.5 2
-2 -3 4 7.6 2.4
1 3 -4 320.47 11.6
1 3 -4 328.97 11.4
1 3 -4 315.77 11.5
-1 -3 4 322.67 11.3
-1 -3 4 333.77 11.7
-1 -3 4 348.77 11.4
0 3 -4 342.57 11.9
0 3 -4 339.57 11
0 3 -4 331.57 11.9
0 -3 4 316.57 11.6
0 -3 4 359.86 12.2
-1 3 -4 362.46 12.5
-1 3 -4 357.06 11
-1 3 -4 350.36 12.4
1 -3 4 359.16 12.6
1 -3 4 352.76 10.5
1 -3 4 374.66 13
-2 3 -4 188.88 7.8
-2 3 -4 174.78 5.7
-2 3 -4 184.58 6.6
-2 3 -4 178.08 7.6
2 -3 4 194.38 8.4
2 -3 4 173.48 6.5
2 -3 4 183.68 8.8
-3 3 -4 87.79 5.1
-3 3 -4 95.09 5.3
-3 3 -4 91.79 4.6
-3 3 -4 86.49 4.7
3 -3 4 103.29 7.2
3 -3 4 81.99 5.9
-4 3 -4 -0.1 1.1
-4 3 -4 -0.6 1.3
-4 3 -4 -0.8 1.1
-4 3 -4 1 1.5
4 -3 4 0.7 1.7
4 -3 4 -1.6 2.3
4 -3 4 1.1 2.4
-5 3 -4 0.4 1.6
5 -3 4 -4.4 2.7
5 -3 4 -0.9 2.6
-6 3 -4 3.7 2
6 -3 4 3.7 3.5
6 2 -4 2.1 2
6 2 -4 0.9 1.9
6 2 -4 0.7 3.2
-6 -2 4 1.1 1.8
-6 -2 4 0.8 1.5
5 2 -4 4.1 2.7
5 2 -4 10.4 2.9
5 2 -4 6.5 2
5 2 -4 3.8 2
-5 -2 4 4.9 1.6
-5 -2 4 6.3 1.9
4 2 -4 0.7 1.9
4 2 -4 0.6 1.6
4 2 -4 -0.9 1.5
4 2 -4 1 1.5
-4 -2 4 0.6 1.3
-4 -2 4 1.1 1.4
-4 -2 4 -0.1 1.3
3 2 -4 -0.1 1
3 2 -4 2.9 1.8
3 2 -4 0.3 1.2
-3 -2 4 -0.5 1
-3 -2 4 2.6 1.3
-3 -2 4 1.5 1.2
2 2 -4 248.38 9.4
2 2 -4 249.97 8.9
2 2 -4 246.48 9
-2 -2 4 257.17 8.6
-2 -2 4 248.98 8.4
-2 -2 4 256.77 9.3
-2 -2 4 255.87 9
1 2 -4 226.38 8
1 2 -4 221.58 8.1
1 2 -4 223.28 8
-1 -2 4 227.58 7
-1 -2 4 218.28 7.9
-1 -2 4 217.98 7.8
0 2 -4 1383.86 37.1
0 2 -4 1320.17 37.6
0 2 -4 1308.97 37.7
0 -2 4 1277.37 37.5
0 -2 4 1312.47 37.7
-1 2 -4 1121.09 32.5
-1 2 -4 1087.69 32.4
-1 2 -4 1147.69 30.9
1 -2 4 1119.69 32.7
-2 2 -4 205.78 6.5
-2 2 -4 211.48 8.1
-2 2 -4 200.38 6.8
-2 2 -4 207.28 8.1
-2 2 -4 209.68 7.2
2 -2 4 202.58 8.3
2 -2 4 207.18 8.4
-3 2 -4 368.36 12.6
-3 2 -4 353.56 11.8
-3 2 -4 355.26 12.5
-3 2 -4 359.76 10.9
-3 2 -4 369.16 12.5
3 -2 4 374.16 13.4
3 -2 4 374.06 13.4
-4 2 -4 14.9 2.5
-4 2 -4 17.9 2.7
-4 2 -4 13.4 1.7
-4 2 -4 18 2.5
4 -2 4 19.3 3.5
4 -2 4 13.9 2.2
4 -2 4 16.8 3.4
-5 2 -4 8.4 2
-5 2 -4 9.6 1.3
5 -2 4 10.7 3.3
5 -2 4 13.6 3.5
5 -2 4 6 1.9
-6 2 -4 -2.6 1.2
6 -2 4 0.2 2.9
6 -2 4 0.8 5.4
-7 -1 4 3.2 2.6
6 1 -4 28 3.8
6 1 -4 33 4
-6 -1 4 34.2 4.4
-6 -1 4 33.7 4.3
5 1 -4 36.4 3.3
5 1 -4 44.8 4.6
5 1 -4 40.1 4.2
5 1 -4 37.9 4.4
5 1 -4 32 3.7
-5 -1 4 36.7 3.9
-5 -1 4 35.5 3.9
4 1 -4 109.39 6.1
4 1 -4 107.79 5.5
4 1 -4 111.59 6.8
4 1 -4 125.39 6.5
4 1 -4 110.39 5.1
-4 -1 4 107.79 5.9
-4 -1 4 120.19 6.3
3 1 -4 639.04 21.3
3 1 -4 610.74 19
3 1 -4 642.64 19
3 1 -4 680.83 20.6
-3 -1 4 654.23 20.2
-3 -1 4 663.93 20.1
2 1 -4 559.94 16.7
2 1 -4 572.04 17.7
2 1 -4 577.24 17.3
2 1 -4 577.74 16.8
2 1 -4 564.64 18.4
-2 -1 4 592.24 17.5
-2 -1 4 575.54 17.2
1 1 -4 89.39 3.8
1 1 -4 91.39 3.4
1 1 -4 89.29 4
-1 -1 4 93.79 3.7
-1 -1 4 90.29 3.4
0 1 -4 111.59 4.9
0 1 -4 117.39 5
0 -1 4 116.29 4.8
0 -1 4 116.59 4.9
-1 1 -4 20.8 2.5
-1 1 -4 21.5 2.4
1 -1 4 23.7 2.4
1 -1 4 21.6 2.6
-2 1 -4 661.63 19.1
-2 1 -4 687.03 20.4
-2 1 -4 681.03 19.6
-2 1 -4 660.73 20.2
2 -1 4 623.44 20.3
2 -1 4 641.54 20.4
-3 1 -4 -0.7 1
-3 1 -4 -0.6 1.4
-3 1 -4 0.1 1.3
-3 1 -4 0.5 0.7
3 -1 4 -1.2 1.5
3 -1 4 0.2 0.9
3 -1 4 -1.7 1.7
3 -1 4 -0.3 1.2
-4 1 -4 3.1 1.6
-4 1 -4 2.2 1
-4 1 -4 1.3 1.2
-4 1 -4 1.2 1.5
4 -1 4 1.4 1.3
4 -1 4 1.3 2.1
4 -1 4 1.1 2.5
4 -1 4 0.5 1.4
4 -1 4 1.4 1.2
-5 1 -4 3.7 1.8
-5 1 -4 1.7 1.3
5 -1 4 -1.9 2.2
5 -1 4 4.9 1.9
5 -1 4 6.3 2.8
5 -1 4 4.9 3
5 -1 4 1.6 1.4
-6 1 -4 -1 1.3
-6 1 -4 -0.5 1.7
6 -1 4 1.4 2.1
6 -1 4 0.7 2.7
6 -1 4 -3.8 4.8
7 0 -4 -0.6 1.7
-7 0 4 2.1 2
6 0 -4 -0.3 1.4
6 0 -4 -2 1.3
-6 0 4 0 1.7
5 0 -4 2.8 2.1
5 0 -4 2.2 1.3
5 0 -4 1.8 1.5
5 0 -4 2.1 1.5
5 0 -4 3.2 2.8
-5 0 4 2.5 1.8
-5 0 4 3.6 1.8
4 0 -4 -1.5 1.2
4 0 -4 1.5 1.3
4 0 -4 0.6 1.4
4 0 -4 0.3 1.5
-4 0 4 1.1 1.1
-4 0 4 1.5 1.4
3 0 -4 5.1 1.4
3 0 -4 7 1.5
3 0 -4 10.3 2.2
3 0 -4 9.4 1.9
-3 0 4 6.8 1.9
-3 0 4 3.4 1.1
2 0 -4 95.59 4.3
2 0 -4 97.69 4.3
2 0 -4 93.89 4.4
2 0 -4 91.79 4.9
-2 0 4 116.29 5.8
-2 0 4 91.79 4.2
-2 0 4 91.99 4.2
1 0 -4 1646.84 45.4
1 0 -4 1722.63 45.3
1 0 -4 1597.14 45.2
1 0 -4 1608.54 46.2
-1 0 4 1507.95 44.7
-1 0 4 1646.24 45.4
-1 0 4 1720.53 44.8
-1 0 4 1755.02 46.8
0 0 -4 474.45 13.8
0 0 -4 444.16 13.6
0 0 -4 438.56 13
0 0 4 430.66 13.6
0 0 4 463.05 13.7
0 0 4 446.46 13
-1 0 -4 80.69 3.6
-1 0 -4 77.39 4.1
-1 0 -4 73.99 4
1 0 4 78.39 4.1
1 0 4 78.39 4.2
-2 0 -4 4692.93 128.49
-2 0 -4 4686.03 129.29
-2 0 -4 4673.73 129.19
2 0 4 4813.82 128.59
2 0 4 4782.42 127.99
2 0 4 4806.02 129.69
2 0 4 4626.24 127.79
2 0 4 4725.13 129.59
-3 0 -4 54.69 3.4
-3 0 -4 52.39 4
-3 0 -4 54.69 3.9
3 0 4 52.49 3.1
3 0 4 56.29 3.7
3 0 4 54.09 3.2
3 0 4 58.79 4.5
3 0 4 52.89 4.6
-4 0 -4 62.29 4.7
-4 0 -4 60.19 4.1
-4 0 -4 60.49 4.3
4 0 4 55.19 5.4
4 0 4 63.49 5.4
4 0 4 62.49 4.3
4 0 4 54.39 3.9
4 0 4 58.09 3.9
-5 0 -4 3.5 1.5
-5 0 -4 -0.5 1.4
-5 0 -4 1 1.6
-5 0 -4 2.7 1.5
5 0 4 -1.9 1.5
5 0 4 -1.8 1.5
5 0 4 -1.1 1.5
5 0 4 3.4 2.6
5 0 4 0.1 2.7
-6 0 -4 1.4 2
-6 0 -4 0.7 1.6
6 0 4 1.8 2.6
6 0 4 3.8 2.1
6 0 4 0.8 1.8
7 -1 -4 0 1.6
7 -1 -4 5.7 2.1
-7 1 4 2.9 2.4
6 -1 -4 1.2 1.4
-6 1 4 3.5 1.9
5 -1 -4 9.8 3.1
5 -1 -4 7 1.8
-5 1 4 4.4 1.7
4 -1 -4 325.27 11.4
4 -1 -4 339.67 12.2
4 -1 -4 324.77 13.1
4 -1 -4 328.27 12.3
-4 1 4 314.97 12
-4 1 4 317.57 12.3
3 -1 -4 119.39 5.6
3 -1 -4 119.19 5.7
3 -1 -4 125.09 5.4
3 -1 -4 120.19 6.4
-3 1 4 130.09 7.3
-3 1 4 126.99 6.3
-3 1 4 116.99 5.9
2 -1 -4 5.2 1
2 -1 -4 6.4 1.2
2 -1 -4 4.6 1.3
-2 1 4 7.2 1.7
-2 1 4 6.1 1.2
1 -1 -4 29.6 2.4
1 -1 -4 27.1 1.8
1 -1 -4 27 2.2
1 -1 -4 27.9 1.9
-1 1 4 28 1.8
-1 1 4 28.9 2.4
-1 1 4 28.5 1.6
-1 1 4 28.5 1.6
0 -1 -4 343.57 11
0 -1 -4 343.67 10.9
0 -1 -4 327.27 10.7
0 1 4 354.96 11
0 1 4 338.87 9.4
0 1 4 324.37 10.8
-1 -1 -4 612.94 18.2
-1 -1 -4 616.64 18.8
-1 -1 -4 594.84 18.6
1 1 4 595.44 16.7
1 1 4 596.14 18.2
1 1 4 628.04 18.9
1 1 4 611.34 18.8
-2 -1 -4 22.5 3.1
-2 -1 -4 31 2.7
-2 -1 -4 27.6 3.1
2 1 4 24.8 3.3
2 1 4 29.1 1.9
2 1 4 27 2.7
2 1 4 24.7 3.2
-3 -1 -4 1.1 1.7
-3 -1 -4 2.1 1.5
-3 -1 -4 -0.6 1.4
3 1 4 2.4 2.2
3 1 4 0.4 1.2
3 1 4 2.3 1
3 1 4 0.2 3.2
-4 -1 -4 60.79 4.9
-4 -1 -4 49.4 4.2
-4 -1 -4 61.49 4.3
-4 -1 -4 56.89 4.7
4 1 4 59.49 5.6
4 1 4 49 4.6
4 1 4 55.99 4
4 1 4 59.79 5.5
4 1 4 57.99 5.2
-5 -1 -4 49.3 3.9
-5 -1 -4 50.59 4
-5 -1 -4 51.09 4.5
5 1 4 50.29 7.2
5 1 4 47.1 4.2
5 1 4 50.19 5.6
5 1 4 44.5 4.7
5 1 4 47.4 4.1
-6 -1 -4 4.9 2.2
-6 -1 -4 10 2.6
6 1 4 8.8 3.4
6 1 4 16 2.9
6 1 4 4.7 2.2
7 -2 -4 -1.9 1.6
-7 2 4 -4.3 2
6 -2 -4 0.3 1.1
-6 2 4 -2.3 1.3
5 -2 -4 -2.3 1.7
5 -2 -4 0 1
-5 2 4 -0.7 1.7
-5 2 4 1.3 1.5
4 -2 -4 212.38 10
4 -2 -4 212.08 8
4 -2 -4 221.18 9.1
4 -2 -4 208.48 9.3
-4 2 4 212.58 9.4
-4 2 4 216.98 10.3
3 -2 -4 121.29 5.6
3 -2 -4 120.99 5.9
3 -2 -4 122.09 6.6
-3 2 4 113.49 6.6
2 -2 -4 137.29 4.9
2 -2 -4 118.59 5.1
2 -2 -4 148.89 5.6
-2 2 4 170.08 7.4
1 -2 -4 23.9 2.2
1 -2 -4 26.3 2.6
1 -2 -4 26.3 1.8
-1 2 4 23.6 2.1
-1 2 4 30 2.8
-1 2 4 22.1 1.9
0 -2 -4 476.45 14.9
0 -2 -4 457.15 14.5
0 -2 -4 445.06 14.2
0 2 4 477.55 14.7
0 2 4 438.26 14.4
-1 -2 -4 379.66 12.8
-1 -2 -4 364.16 12.2
-1 -2 -4 348.57 12.5
1 2 4 366.16 12.2
1 2 4 366.66 12.7
1 2 4 377.46 13
-2 -2 -4 1700.03 48.9
-2 -2 -4 1643.64 48.6
-2 -2 -4 1647.24 50.29
-2 -2 -4 1685.03 46.5
2 2 4 1735.03 49.2
2 2 4 1682.43 48.3
2 2 4 1754.42 49.4
-3 -2 -4 12.4 2
-3 -2 -4 21.5 3.2
-3 -2 -4 20.4 3.2
-3 -2 -4 16.2 1.9
3 2 4 10.4 2.2
3 2 4 18.5 3.3
3 2 4 13.6 3.4
-4 -2 -4 281.07 11.7
-4 -2 -4 301.37 11.6
-4 -2 -4 297.27 11.8
4 2 4 296.87 12.2
4 2 4 301.17 10.5
4 2 4 296.37 12.8
-5 -2 -4 5.9 2.1
-5 -2 -4 0.8 1.6
-5 -2 -4 3.6 2
-5 -2 -4 1.8 2.3
5 2 4 0.1 2.2
5 2 4 4.2 2
5 2 4 6.9 3.6
5 2 4 1.7 1.8
6 2 4 -0.1 2
6 2 4 7.2 2.5
6 2 4 -1.3 3
6 -3 -4 -0.2 1
6 -3 -4 2.8 2.2
5 -3 -4 4.5 1.3
5 -3 -4 6.3 1.9
-5 3 4 8.3 2.9
4 -3 -4 87.49 5.6
4 -3 -4 82.99 4
4 -3 -4 93.39 4.8
4 -3 -4 89.29 4.3
4 -3 -4 90.39 5.5
-4 3 4 91.19 6.5
3 -3 -4 1.4 1.1
3 -3 -4 0.8 1.1
3 -3 -4 1.1 1.8
3 -3 -4 4.1 1.4
-3 3 4 -0.9 1.5
2 -3 -4 15.5 2.2
2 -3 -4 17.5 2.2
2 -3 -4 19 2.1
2 -3 -4 14.7 2.4
2 -3 -4 15.9 2.2
-2 3 4 20.3 4.1
1 -3 -4 91.39 5.1
1 -3 -4 90.79 4.7
1 -3 -4 97.99 4.6
-1 3 4 90.39 4.4
-1 3 4 89.59 4.4
0 -3 -4 354.86 12.4
0 -3 -4 373.96 12.8
0 -3 -4 346.17 11.8
0 3 4 359.86 12
0 3 4 345.47 12.3
0 3 4 343.67 12.2
-1 -3 -4 125.59 7.4
-1 -3 -4 126.59 6.6
-1 -3 -4 122.69 6.2
1 3 4 121.99 6
1 3 4 121.49 6.3
1 3 4 97.09 7.2
-2 -3 -4 1.6 1.2
-2 -3 -4 1.6 0.8
-2 -3 -4 1.2 1.9
-2 -3 -4 2.8 1.8
2 3 4 -1.5 2.3
2 3 4 1.2 1.9
2 3 4 -0.3 1.3
-3 -3 -4 408.36 15
-3 -3 -4 373.76 14.2
-3 -3 -4 373.46 12.3
-3 -3 -4 386.76 14.5
3 3 4 401.76 14.7
3 3 4 384.36 15.2
-4 -3 -4 154.78 8.2
-4 -3 -4 156.48 8.2
-4 -3 -4 151.38 7.9
-4 -3 -4 152.48 6.7
4 3 4 166.08 8.8
4 3 4 167.88 9.3
4 3 4 132.39 11.2
-5 -3 -4 9 2.6
-5 -3 -4 14.6 3.2
5 3 4 8.5 3
5 3 4 10.6 2.8
-6 -3 -4 -0.9 1.4
6 3 4 0.2 2.8
6 3 4 -4.7 1.9
6 -4 -4 -3.9 2.8
-6 4 4 0.9 2.2
5 -4 -4 10.1 1.4
5 -4 -4 16.3 3.5
5 -4 -4 5.2 2.7
5 -4 -4 9.2 1.4
-5 4 4 16.1 3.9
4 -4 -4 11.3 1.6
4 -4 -4 10.3 2.3
4 -4 -4 14 1.9
4 -4 -4 15.5 2.4
-4 4 4 15.4 3.4
3 -4 -4 23.1 2.6
3 -4 -4 19.9 2.7
3 -4 -4 21.8 2.9
3 -4 -4 23.7 3
-3 4 4 25.8 3.8
2 -4 -4 0.7 1.1
2 -4 -4 0.7 1.5
2 -4 -4 1 2.2
-2 4 4 3.7 1.3
-2 4 4 3.1 1.4
-2 4 4 0.4 1.8
1 -4 -4 44.3 4.5
1 -4 -4 49.8 3.6
-1 4 4 54.59 3.9
-1 4 4 55.09 3.9
0 -4 -4 26.7 3.3
0 -4 -4 26.8 2.9
0 -4 -4 29.3 5.6
0 4 4 25.4 4.1
0 4 4 25.8 3.4
0 4 4 27.4 3.3
-1 -4 -4 89.59 5.9
-1 -4 -4 92.59 5.4
-1 -4 -4 103.79 6.7
1 4 4 94.19 6.1
1 4 4 70.99 5.8
1 4 4 94.99 5.6
-2 -4 -4 4.7 2.1
-2 -4 -4 4.9 2.5
-2 -4 -4 2.4 1
-2 -4 -4 2.3 1.3
2 4 4 2.5 1.8
2 4 4 4.7 2.9
2 4 4 4.3 2.4
-3 -4 -4 386.86 15.1
-3 -4 -4 384.56 15
-3 -4 -4 399.26 15.6
-3 -4 -4 387.96 12.7
3 4 4 403.76 15.5
3 4 4 408.36 16.1
-4 -4 -4 3.3 2.2
-4 -4 -4 1 1.2
-4 -4 -4 2.7 2.2
4 4 4 2 5.1
4 4 4 3 2.4
4 4 4 1.3 2.1
-5 -4 -4 -0.7 2.2
-5 -4 -4 4.2 2.2
-5 -4 -4 4.9 1.5
5 4 4 3.6 2.8
5 4 4 3.1 4.4
6 -5 -4 -5.2 3.2
6 -5 -4 6.1 2.6
-6 5 4 1 2.4
5 -5 -4 20.5 3.1
-5 5 4 20.1 4.3
4 -5 -4 10.6 2.6
4 -5 -4 8.2 1.9
4 -5 -4 12.1 1.6
4 -5 -4 15.6 4.5
4 -5 -4 17.1 2.8
-4 5 4 11.7 3.3
3 -5 -4 27.2 3.3
3 -5 -4 31.3 2.9
3 -5 -4 31.5 3.7
3 -5 -4 30.9 3.5
-3 5 4 33.6 4.7
2 -5 -4 3.8 2.6
2 -5 -4 0.7 1.9
2 -5 -4 0.4 1.2
-2 5 4 2 1.4
-2 5 4 1.1 1.7
1 -5 -4 12.6 3.7
1 -5 -4 16.4 2.2
1 -5 -4 22.6 3.7
-1 5 4 19.2 3.3
-1 5 4 17.5 3.7
0 -5 -4 15.1 3.2
0 -5 -4 9 1.9
0 -5 -4 12.1 3.8
0 5 4 9.9 3.1
0 5 4 7 2.5
0 5 4 11.9 2.3
-1 -5 -4 28.4 4.2
-1 -5 -4 26.7 3.4
-1 -5 -4 31.8 5.1
1 5 4 36.9 4.2
1 5 4 30.2 4.5
1 5 4 31.3 4.6
-2 -5 -4 278.67 12.1
-2 -5 -4 257.77 9
-2 -5 -4 259.87 11.3
-2 -5 -4 273.07 12.4
2 5 4 273.87 12.6
2 5 4 273.57 11.9
2 5 4 257.77 12.6
-3 -5 -4 22.9 2.6
-3 -5 -4 26.1 4.4
-3 -5 -4 21.3 4.1
3 5 4 14.7 3
3 5 4 24.4 5.1
3 5 4 23.8 4.5
-4 -5 -4 2.7 1.3
-4 -5 -4 3.2 2.5
-4 -5 -4 5.3 2.5
4 5 4 0.2 2.7
4 5 4 1.6 2.7
-5 -5 -4 -0.7 2.5
-5 -5 -4 3.6 2.6
-5 -5 -4 1.5 1.5
5 5 4 0.5 2.5
5 5 4 1.7 3.2
5 -6 -4 3.6 2.5
5 -6 -4 -0.6 3.5
-5 6 4 2.1 2.4
4 -6 -4 3.4 1.2
4 -6 -4 0.7 3.5
-4 6 4 5.9 2.7
3 -6 -4 -0.5 1.3
3 -6 -4 0.9 2.9
3 -6 -4 2.1 1.2
3 -6 -4 5.8 2.2
-3 6 4 0.8 2.4
2 -6 -4 -0.9 2.6
2 -6 -4 3.5 2.2
2 -6 -4 1.9 1.3
-2 6 4 2.6 2.3
1 -6 -4 -0.5 1.3
1 -6 -4 -1.8 2.7
1 -6 -4 0.9 2.2
-1 6 4 1.4 2.5
-1 6 4 0.3 1.9
-1 6 4 0.6 1.6
0 -6 -4 8.4 2.9
0 -6 -4 10.5 4.1
0 -6 -4 7.8 2
0 6 4 6.9 2.3
0 6 4 14.4 3.3
0 6 4 11.6 3.3
-1 -6 -4 6.5 2.1
-1 -6 -4 10.3 3.7
1 6 4 7 2.9
1 6 4 5.4 3.3
1 6 4 7.9 2.5
-2 -6 -4 4 2.6
-2 -6 -4 3.1 2.9
-2 -6 -4 -0.7 1.4
2 6 4 0.9 2
2 6 4 3 2.8
-3 -6 -4 28 2.8
-3 -6 -4 33.5 5.4
3 6 4 30.1 5.1
3 6 4 21.1 3.9
-4 -6 -4 -4 4.1
-4 -6 -4 2.4 1.3
4 6 4 3.9 2.7
4 6 4 6.4 3.3
-5 7 4 8.3 3.6
4 -7 -4 -0.7 1
4 -7 -4 -2.3 3.8
4 -7 -4 1.4 2.3
-4 7 4 -3.2 2.2
3 -7 -4 14.2 2.3
-3 7 4 17.7 4.8
-3 7 4 18.5 2.8
2 -7 -4 -0.3 2.3
2 -7 -4 -1.4 1.2
2 -7 -4 7.5 4.1
-2 7 4 -2.8 2.3
-2 7 4 0.5 1.8
1 -7 -4 0.1 2.4
1 -7 -4 -3.8 2.6
1 -7 -4 0.4 1.2
-1 7 4 2.9 1.9
-1 7 4 1.1 3
-1 7 4 0.1 1.9
0 -7 -4 8.9 2.9
0 -7 -4 8.2 3.5
0 7 4 5 2.3
0 7 4 6.2 4.5
0 7 4 7.5 2.9
-1 -7 -4 57.59 5.4
-1 -7 -4 57.69 7.1
1 7 4 62.29 6.7
1 7 4 55.19 5.9
2 7 4 99.69 8.1
2 7 4 111.49 11.3
-3 -7 -4 9.4 1.9
-3 -7 -4 5 3.1
3 7 4 9.1 3.6
3 7 4 7.3 2.9
-4 -7 -4 -1.6 1.1
4 7 4 -0.7 2.7
4 7 4 3 3.4
4 -8 -4 9 1.7
-4 8 4 16.1 4.9
3 -8 -4 4.7 3.8
3 -8 -4 2.4 1.7
3 -8 -4 4.4 4.1
-3 8 4 6.1 2.3
-3 8 4 7.1 3.7
-3 8 4 10.5 3
2 -8 -4 2.6 1.8
2 -8 -4 2 4.1
-2 8 4 2 2.2
-2 8 4 -3 2.7
1 -8 -4 0.7 4.5
-1 8 4 -5.3 3.5
-1 8 4 1.5 2.4
-1 8 4 0 1.8
0 -8 -4 0.4 3.7
0 8 4 11 3.7
0 8 4 9 2.8
-1 -8 -4 11.2 4.4
1 8 4 17.4 4.5
-2 -8 -4 2.1 3.3
2 8 4 2 2.8
2 8 4 2.9 2.6
-3 -8 -4 3.3 1.5
3 8 4 -2.4 2.5
3 8 4 2.9 3.3
3 -9 -4 -2.7 1.8
-3 9 4 -5.4 2.7
-3 9 4 3.5 2.1
-3 9 4 -3.9 2.9
2 -9 -4 -7.9 3.8
-2 9 4 0.3 2.4
-2 9 4 -7 4.3
1 -9 -4 2.9 4
-1 9 4 0.9 4.9
0 -9 -4 0.6 4.1
0 9 4 2.5 2.8
0 9 4 3.4 3
1 9 4 106.89 9.7
1 9 4 103.29 8.6
2 9 4 4.8 4.5
2 9 4 6.2 4.1
2 9 -5 1.8 3.3
2 9 -5 -3.6 2.1
1 9 -5 0.3 3.3
1 9 -5 1.7 2.5
-1 -9 5 0.7 3.8
0 9 -5 4.5 2.4
0 9 -5 8.5 3.8
0 -9 5 1.3 3.9
-1 9 -5 0.8 1.9
-1 9 -5 0.7 3
1 -9 5 -1.1 1.4
1 -9 5 5.9 4.5
-2 9 -5 3.2 3
2 -9 5 -2.8 4.3
2 -9 5 -1.6 1.5
-3 9 -5 6 3.6
3 -9 5 1.2 2
3 8 -5 7.1 3
3 8 -5 2 3.1
-3 -8 5 1.6 3.3
2 8 -5 -2.4 1.8
2 8 -5 -0.8 2.9
-2 -8 5 -0.5 3.6
1 8 -5 1.1 1.9
1 8 -5 2.2 3.3
-1 -8 5 1.9 6.5
0 8 -5 11.7 2.6
0 8 -5 10.7 3.9
0 -8 5 13.9 6.5
0 -8 5 7.9 3.1
-1 8 -5 1.3 2.9
-1 8 -5 -1 1.4
1 -8 5 -0.8 4.8
1 -8 5 0.9 1.1
-2 8 -5 22.6 4.4
-2 8 -5 15.7 2.4
2 -8 5 13.1 4.9
2 -8 5 14.9 2.2
-3 8 -5 3.2 2.7
3 -8 5 -1.1 1.5
3 -8 5 1.3 4.1
-4 8 -5 2.9 2.7
-4 8 -5 -1.2 3.5
-4 8 -5 0.8 2.3
4 -8 5 0.2 2.1
4 7 -5 20.8 4.4
4 7 -5 20 4.3
-4 -7 5 11.7 3.3
-4 -7 5 11.1 3.1
-4 -7 5 17.3 3.1
3 7 -5 5.3 2.4
3 7 -5 14.4 5
-3 -7 5 7.5 3.3
-3 -7 5 14 3.1
2 7 -5 20.9 3.3
2 7 -5 25.8 4.7
-2 -7 5 31.1 4.6
-2 -7 5 27.3 4.8
1 7 -5 31.1 4.4
1 7 -5 22.6 4.4
-1 -7 5 26.2 4.9
-1 -7 5 14.1 3.5
-1 -7 5 21.1 3.7
0 7 -5 0.6 1.6
0 7 -5 1.6 2.4
0 7 -5 1.1 2.8
0 -7 5 5.5 1.8
0 -7 5 1.1 3.3
0 -7 5 -0.1 2.4
-1 7 -5 -0.3 2.9
-1 7 -5 1.1 2.3
-1 7 -5 1.1 1.5
1 -7 5 1.5 1
1 -7 5 2.2 3.4
-2 7 -5 55.99 3.7
-2 7 -5 52.29 6
-2 7 -5 62.19 6.2
2 -7 5 53.09 3.5
2 -7 5 38 6.5
-3 7 -5 -1.9 3
-3 7 -5 0.9 2.4
3 -7 5 -2.4 1.2
3 -7 5 0.8 3.8
-4 7 -5 4.1 2.4
-4 7 -5 5.6 3.1
-4 7 -5 0.3 2.2
4 -7 5 3.1 4.3
4 -7 5 -0.1 1.9
-5 7 -5 3.9 2.4
5 6 -5 -2.4 2.5
5 6 -5 -0.8 2.4
-5 -6 5 3.3 2
-5 -6 5 -0.9 1.6
4 6 -5 1 2.1
4 6 -5 2.1 2.6
-4 -6 5 -1.5 1
-4 -6 5 -2.2 1.9
-4 -6 5 2.1 2.2
3 6 -5 34.1 5.2
3 6 -5 20.3 3.6
3 6 -5 35.9 5.9
-3 -6 5 33.3 4.8
-3 -6 5 32.7 4.3
2 6 -5 4.8 3.2
2 6 -5 4.2 2.6
2 6 -5 1.4 1.9
-2 -6 5 6.2 3.2
-2 -6 5 6 2.1
-2 -6 5 2.6 1.5
1 6 -5 2.4 1.9
1 6 -5 5.9 2.6
1 6 -5 2.5 3
-1 -6 5 1.1 2.7
-1 -6 5 5.2 1.9
-1 -6 5 3 2.1
0 6 -5 2.1 1.7
0 6 -5 -0.3 2.7
0 6 -5 2.6 2.5
0 -6 5 -0.5 1.1
0 -6 5 1.7 2
0 -6 5 4.6 3.2
-1 6 -5 20.8 4.3
-1 6 -5 19.2 2.5
-1 6 -5 20.5 3.7
1 -6 5 18 1.9
1 -6 5 25.9 4.3
1 -6 5 28.9 5.2
-2 6 -5 138.09 8
-2 6 -5 129.99 7.8
-2 6 -5 131.89 5.5
2 -6 5 130.19 5.6
2 -6 5 140.29 12.7
-3 6 -5 5.3 2.5
-3 6 -5 -1.5 2.3
-3 6 -5 2.6 2.1
3 -6 5 -0.3 3.4
3 -6 5 5.6 1.5
3 -6 5 1.2 2.5
-4 6 -5 5 2.5
-4 6 -5 0.4 1.6
-4 6 -5 -1.5 1.8
4 -6 5 -0.2 1.6
4 -6 5 0 3.5
-5 6 -5 1 1.8
5 -6 5 2.6 5.8
5 5 -5 1.8 2.3
5 5 -5 1.3 2.4
-5 -5 5 2.4 1.8
-5 -5 5 2.9 1.8
4 5 -5 148.09 9.5
4 5 -5 147.89 9
4 5 -5 153.18 9
-4 -5 5 145.59 6.9
-4 -5 5 140.49 7.9
-4 -5 5 141.99 7.5
3 5 -5 28.9 4.9
3 5 -5 24.1 3.7
3 5 -5 30.1 4.5
-3 -5 5 36.9 4
-3 -5 5 30.8 3.7
-3 -5 5 32.2 4.3
-3 -5 5 32.9 3.2
2 5 -5 54.19 5
2 5 -5 62.49 5.6
2 5 -5 55.39 5.5
-2 -5 5 58.09 4.8
-2 -5 5 56.39 4.7
-2 -5 5 65.09 5.8
1 5 -5 37.5 4.5
1 5 -5 34.5 3.8
1 5 -5 35.4 4.7
-1 -5 5 34.2 4.8
-1 -5 5 33.9 4.1
-1 -5 5 32.8 3.5
0 5 -5 20.8 2.8
0 5 -5 16.5 3.2
0 5 -5 17.6 3.6
0 -5 5 13.2 2
0 -5 5 16.5 3.1
0 -5 5 26.1 4.4
-1 5 -5 32.7 4.3
-1 5 -5 34.9 3.1
-1 5 -5 40.3 4.7
1 -5 5 42.6 5.5
1 -5 5 36.1 4.3
1 -5 5 36.5 2.2
-2 5 -5 17.9 3.3
-2 5 -5 19.6 3.6
-2 5 -5 16.3 1.8
2 -5 5 14.5 1.9
2 -5 5 9.2 3.7
2 -5 5 14 3.1
-3 5 -5 2.9 2.2
-3 5 -5 2.8 2.4
-3 5 -5 1.3 2.2
3 -5 5 1 3.1
3 -5 5 5.1 2.4
3 -5 5 1.5 1.2
-4 5 -5 5.7 2.4
-4 5 -5 5 1.7
-4 5 -5 5.5 2.2
4 -5 5 4 3.2
4 -5 5 2 3.2
-5 5 -5 0.4 1.6
5 -5 5 -5.9 2.8
6 4 -5 1.5 2.4
6 4 -5 2.5 2.5
-6 -4 5 2.3 2
-6 -4 5 1.1 2.1
5 4 -5 4.7 2.3
5 4 -5 11.7 4.4
5 4 -5 9.1 2.5
-5 -4 5 6.8 2.1
-5 -4 5 4.7 2.3
4 4 -5 66.99 5.5
4 4 -5 66.09 6
4 4 -5 66.89 5.9
-4 -4 5 65.79 5.1
-4 -4 5 60.89 5.3
-4 -4 5 67.09 4.8
3 4 -5 1.1 2
3 4 -5 1 1.5
3 4 -5 -3.4 2.6
-3 -4 5 2.1 1.5
-3 -4 5 1.9 2
-3 -4 5 2.5 2
-3 -4 5 2.1 1.6
-3 -4 5 1.1 1.1
2 4 -5 76.09 5.8
2 4 -5 76.89 5.4
2 4 -5 78.59 5.3
-2 -4 5 81.89 5.2
-2 -4 5 84.39 5.5
-2 -4 5 86.59 4.2
-2 -4 5 79.99 4.9
1 4 -5 50.59 4.5
1 4 -5 42.2 4.4
1 4 -5 44.1 4.4
-1 -4 5 43.2 3.6
-1 -4 5 35.8 5
-1 -4 5 43.1 3.8
0 4 -5 473.45 17.1
0 4 -5 438.16 16.3
0 4 -5 474.65 15.4
0 -4 5 561.44 19.9
0 -4 5 452.05 16.3
-1 4 -5 342.97 13.2
-1 4 -5 344.47 11.5
-1 4 -5 375.46 13.5
1 -4 5 347.87 13.3
1 -4 5 381.36 14.1
1 -4 5 346.27 10.5
-2 4 -5 90.69 5.9
-2 4 -5 86.19 5.6
-2 4 -5 89.19 3.7
2 -4 5 89.99 5.9
2 -4 5 91.89 4.1
2 -4 5 100.19 6.6
-3 4 -5 54.59 3.8
-3 4 -5 53.19 3.6
-3 4 -5 52.49 4.7
-3 4 -5 54.99 4.7
3 -4 5 49.9 5.5
-4 4 -5 46.6 3.7
-4 4 -5 46.9 3.9
-4 4 -5 49.3 4.3
4 -4 5 47.1 5.9
4 -4 5 48.6 5.8
-5 4 -5 -1.1 1.6
5 -4 5 4.3 3.1
5 -4 5 2.6 3.9
-6 4 -5 -1.5 1.7
6 -4 5 -3.2 4.7
6 3 -5 3.8 2.1
6 3 -5 -2.2 2
-6 -3 5 0 1.5
-6 -3 5 -0.7 1.6
5 3 -5 27.5 4.8
5 3 -5 19.7 3.3
5 3 -5 23.1 3.8
-5 -3 5 20.9 3.3
-5 -3 5 19 3
4 3 -5 23.9 4.2
4 3 -5 26.5 3.8
4 3 -5 14.8 2.9
-4 -3 5 15.3 2.6
-4 -3 5 27.5 3.1
-4 -3 5 16.8 2.7
3 3 -5 111.29 6.4
3 3 -5 103.39 5.9
3 3 -5 114.09 6.4
-3 -3 5 110.19 5.5
-3 -3 5 104.09 4.9
-3 -3 5 106.89 5.9
-3 -3 5 112.09 6.3
2 3 -5 142.39 7
2 3 -5 153.88 7.1
2 3 -5 145.09 6.8
-2 -3 5 155.18 6.6
-2 -3 5 146.49 6.8
-2 -3 5 146.89 5.8
-2 -3 5 143.49 6.2
1 3 -5 75.39 4.4
1 3 -5 73.59 4.6
1 3 -5 80.39 5
-1 -3 5 73.49 3
-1 -3 5 77.39 4.7
-1 -3 5 71.49 4.3
0 3 -5 81.39 5
0 3 -5 85.99 5
0 3 -5 87.19 4.2
0 -3 5 85.19 4.9
0 -3 5 86.69 5.3
-1 3 -5 6.9 2.1
-1 3 -5 4.1 1
-1 3 -5 6.1 1.8
1 -3 5 3.1 2.1
1 -3 5 6.4 2.1
-2 3 -5 17.3 3
-2 3 -5 12.5 1.6
-2 3 -5 13.4 2.5
-2 3 -5 13.7 1.4
2 -3 5 15.3 3
-3 3 -5 75.79 5.7
-3 3 -5 79.19 6.1
-3 3 -5 76.39 4
-3 3 -5 78.89 4.3
3 -3 5 75.39 5.9
3 -3 5 80.09 6.1
-4 3 -5 6.7 2.2
-4 3 -5 4.9 2
-4 3 -5 2.9 1.2
-4 3 -5 2.8 1.4
4 -3 5 4.3 2.9
4 -3 5 3 2.9
-5 3 -5 -0.4 1.3
5 -3 5 0.6 2.7
-6 3 -5 -2.1 1.4
6 -3 5 1.6 3.3
6 2 -5 -0.2 2
6 2 -5 3.8 2
6 2 -5 -2.1 3.1
-6 -2 5 0.2 1.8
-6 -2 5 -0.6 1.3
5 2 -5 14.7 2.6
5 2 -5 5 2.7
5 2 -5 12.1 3.3
5 2 -5 9.9 2.5
-5 -2 5 11.9 2.7
-5 -2 5 8.7 2.2
4 2 -5 44 4.5
4 2 -5 42.2 3.7
4 2 -5 36.9 4
4 2 -5 42.5 4.4
-4 -2 5 44.5 4
-4 -2 5 42.6 3.8
3 2 -5 109.29 5.4
3 2 -5 111.39 6.1
3 2 -5 107.89 6.4
3 2 -5 113.59 5.7
-3 -2 5 107.69 5.6
-3 -2 5 119.79 6
2 2 -5 39.6 3.1
2 2 -5 39.9 3.3
2 2 -5 40.5 3.3
-2 -2 5 40 2.6
-2 -2 5 40.7 3.1
-2 -2 5 41.2 2.6
-2 -2 5 37.5 2.8
1 2 -5 434.96 13.6
1 2 -5 409.06 13.4
1 2 -5 409.46 13.4
-1 -2 5 410.56 13.2
-1 -2 5 390.36 13.1
-1 -2 5 421.76 12
0 2 -5 246.08 9.1
0 2 -5 250.77 9.2
0 -2 5 249.18 9.2
0 -2 5 237.88 9
-1 2 -5 7.1 1.9
-1 2 -5 9.8 1
-1 2 -5 8 1.9
1 -2 5 11.2 2.3
1 -2 5 7.5 1.9
-2 2 -5 354.06 12.4
-2 2 -5 355.16 10.8
-2 2 -5 364.96 12.6
-2 2 -5 348.17 11.2
-2 2 -5 345.57 10.5
2 -2 5 342.77 12.7
-3 2 -5 377.36 11.6
-3 2 -5 380.56 13.4
-3 2 -5 371.66 13.3
-3 2 -5 386.86 12.9
3 -2 5 384.66 14.3
3 -2 5 376.26 14.2
-4 2 -5 6.9 1.6
-4 2 -5 14.3 2.5
-4 2 -5 11.1 2.4
-4 2 -5 10.8 1.4
4 -2 5 13 3.4
4 -2 5 10.5 2.2
4 -2 5 13.2 3.3
-5 2 -5 -0.8 1.3
-5 2 -5 -1.1 0.8
-5 2 -5 1.3 1.4
-5 2 -5 1.5 1.4
5 -2 5 3.5 2.8
5 -2 5 -3 1.4
-6 2 -5 -2.4 1.5
6 -2 5 7.2 3.5
6 1 -5 13.4 2.7
6 1 -5 19.9 3.1
-6 -1 5 12.4 2.7
-6 -1 5 11.7 3
5 1 -5 67.69 5.2
5 1 -5 49 4.2
5 1 -5 61.29 3.9
5 1 -5 61.89 5.5
-5 -1 5 58.59 4.7
-5 -1 5 66.79 5.2
4 1 -5 -0.3 1.2
4 1 -5 -0.2 1.2
4 1 -5 0.8 1.7
-4 -1 5 -1.5 1.2
-4 -1 5 -0.1 1.2
3 1 -5 -0.1 0.9
3 1 -5 -0.2 1.1
3 1 -5 0.7 0.9
3 1 -5 -0.2 1.1
3 1 -5 -1.2 1.2
-3 -1 5 0 0.9
-3 -1 5 -0.1 1.1
2 1 -5 218.78 8.8
2 1 -5 214.08 7.4
2 1 -5 217.18 8.2
2 1 -5 200.78 7.2
2 1 -5 212.48 7.5
-2 -1 5 212.88 7.5
-2 -1 5 217.48 7.8
1 1 -5 588.14 16.9
1 1 -5 594.34 17.6
1 1 -5 600.74 18.2
1 1 -5 592.14 17.7
-1 -1 5 573.34 17.3
-1 -1 5 593.94 17.3
0 1 -5 521.75 15.4
0 1 -5 520.35 16.2
0 1 -5 544.65 16.4
0 -1 5 524.65 16.2
0 -1 5 521.15 16.2
-1 1 -5 320.77 10.8
-1 1 -5 290.27 10.5
1 -1 5 294.97 10.6
1 -1 5 300.67 10.6
-2 1 -5 409.66 13.8
-2 1 -5 403.86 12.6
2 -1 5 400.26 14
2 -1 5 413.96 14.1
-3 1 -5 2.9 1.5
-3 1 -5 4.9 1.2
-3 1 -5 4 1.9
-3 1 -5 2.8 1.9
3 -1 5 5.8 3.2
3 -1 5 4 2.4
3 -1 5 1.5 1.3
3 -1 5 4.7 1.2
-4 1 -5 2.3 1.7
-4 1 -5 2.2 1.5
-4 1 -5 1 1
-4 1 -5 0.8 1.6
4 -1 5 -0.2 1.3
4 -1 5 2.1 1.3
4 -1 5 0.3 2.5
4 -1 5 4.3 2.5
-5 1 -5 3.7 1.7
-5 1 -5 5.9 1.9
-5 1 -5 6.1 1.7
-5 1 -5 0.9 2.3
5 -1 5 6.2 2.3
5 -1 5 8.8 3.4
5 -1 5 7.8 2.9
-6 1 -5 3.2 1.8
-6 1 -5 2 1.5
6 -1 5 3.8 3.1
6 -1 5 5.6 2.7
7 0 -5 7.2 2.7
7 0 -5 1.5 2.1
-7 0 5 -1 1.9
6 0 -5 0.1 1.5
6 0 -5 1.2 1.5
-6 0 5 2.4 1.9
5 0 -5 6.1 2.3
5 0 -5 2.6 1.5
-5 0 5 2.7 1.3
-5 0 5 4.3 1.8
4 0 -5 0.8 1.6
4 0 -5 -0.2 1.7
4 0 -5 0.7 1.3
4 0 -5 0.3 1
-4 0 5 -0.7 1.2
-4 0 5 0.6 1.1
3 0 -5 71.09 4.8
3 0 -5 61.49 3.9
3 0 -5 64.99 4.1
3 0 -5 63.79 4
-3 0 5 66.49 4
2 0 -5 511.05 16.8
2 0 -5 503.25 15.6
2 0 -5 507.75 15.7
-2 0 5 514.15 16.9
-2 0 5 514.65 15.8
-2 0 5 511.45 15.7
1 0 -5 1291.37 34.8
1 0 -5 1243.28 35.6
1 0 -5 1313.57 35
1 0 -5 1211.78 34.8
-1 0 5 1165.88 34.3
-1 0 5 1253.57 34.5
-1 0 5 1266.47 34.7
-1 0 5 1222.98 35.6
0 0 -5 2322.57 64.79
0 0 -5 2307.17 64.09
0 0 -5 2445.16 64.99
0 0 5 2299.97 64.09
0 0 5 2425.26 64.89
0 0 5 2274.27 64.79
-1 0 -5 27.2 2.8
-1 0 -5 23.9 2.6
-1 0 -5 26.8 2.3
1 0 5 25.8 2.7
1 0 5 25.6 3
-2 0 -5 225.28 8.1
-2 0 -5 226.98 8.9
-2 0 -5 223.58 8.9
2 0 5 221.78 9.1
2 0 5 214.58 6.9
2 0 5 220.78 9.1
2 0 5 236.58 7.4
-3 0 -5 154.98 7.3
-3 0 -5 164.18 6.7
-3 0 -5 167.28 7.6
3 0 5 159.18 8.1
3 0 5 166.38 8.1
3 0 5 169.28 7
3 0 5 177.78 6.5
3 0 5 155.68 6
-4 0 -5 8.4 1.9
-4 0 -5 11.4 3.6
-4 0 -5 11.3 2.4
4 0 5 6.3 1.7
4 0 5 12.8 3.1
4 0 5 10.1 3
4 0 5 6.3 2
4 0 5 11.7 2.1
-5 0 -5 5.6 1.8
-5 0 -5 7.1 2.4
-5 0 -5 3.4 1.6
-5 0 -5 6.9 2
5 0 5 6.6 1.9
5 0 5 6.7 3.5
5 0 5 3.1 1.9
5 0 5 4.4 1.7
5 0 5 7.4 3.2
-6 0 -5 0.4 1.7
-6 0 -5 2.1 2
6 0 5 5.7 3.3
6 0 5 -2.1 1.7
6 0 5 0.4 1.8
7 -1 -5 4.1 2
-7 1 5 6.6 2.7
6 -1 -5 6.4 2
-6 1 5 5.1 2.3
5 -1 -5 12.5 3.2
5 -1 -5 5.4 1.7
5 -1 -5 5.2 1.8
-5 1 5 5.4 1.8
4 -1 -5 105.89 6.7
4 -1 -5 113.09 6.1
4 -1 -5 109.39 5.7
4 -1 -5 103.59 6
-4 1 5 106.49 6.1
-4 1 5 107.19 5.9
-4 1 5 106.89 7
3 -1 -5 90.19 4.8
3 -1 -5 87.19 5.4
3 -1 -5 91.99 4.8
3 -1 -5 90.19 4.9
-3 1 5 92.79 5
-3 1 5 85.09 4.7
-3 1 5 92.49 5.8
2 -1 -5 5 1
2 -1 -5 5.8 1.3
2 -1 -5 6.5 1.5
-2 1 5 5.5 1.2
-2 1 5 10.9 2.5
1 -1 -5 176.38 6.2
1 -1 -5 161.68 5.6
1 -1 -5 169.28 6.7
1 -1 -5 169.68 6
-1 1 5 164.28 5.6
-1 1 5 161.78 5.5
-1 1 5 161.58 6.7
-1 1 5 166.28 5.6
0 -1 -5 74.59 4
0 -1 -5 76.99 4.2
0 1 5 69.39 4
0 1 5 74.79 3.9
0 1 5 75.49 2.4
0 1 5 70.79 3.5
-1 -1 -5 610.74 19.1
-1 -1 -5 635.74 18.7
-1 -1 -5 641.94 19.4
1 1 5 627.14 19.2
1 1 5 542.65 19.1
-2 -1 -5 -0.8 1.3
-2 -1 -5 0.1 0.8
-2 -1 -5 1.4 1.5
2 1 5 0 1.5
2 1 5 -1.4 1.9
2 1 5 0.7 0.7
2 1 5 0.4 1.2
-3 -1 -5 3.4 1.4
-3 -1 -5 3 1.8
-3 -1 -5 3.6 2.3
3 1 5 4.1 2.1
3 1 5 0.9 2.1
3 1 5 3.5 2.2
3 1 5 4.3 1.1
-4 -1 -5 -1.3 1.7
-4 -1 -5 -0.9 1.4
-4 -1 -5 -2.4 1.1
4 1 5 0.4 1.7
4 1 5 -1.1 2.5
4 1 5 1.6 2.2
4 1 5 -0.9 1.2
4 1 5 0.6 1.2
-5 -1 -5 0.6 1.6
-5 -1 -5 -1.5 1.4
-5 -1 -5 -1.3 1.1
5 1 5 1.2 1.8
5 1 5 -1.7 2.7
5 1 5 -3.6 1.5
5 1 5 -1.8 1.6
5 1 5 -1.4 1.9
-6 -1 -5 -1.3 1.7
-6 -1 -5 4.3 2.3
6 1 5 -2.6 1.7
6 1 5 1.5 2.6
-6 2 5 -2.7 1.4
5 -2 -5 1.8 1.9
5 -2 -5 2.7 2.3
-5 2 5 1.2 1.6
-5 2 5 2.4 2.2
4 -2 -5 3.4 1.3
4 -2 -5 1.8 1.9
4 -2 -5 3.7 1.8
4 -2 -5 4.8 1.5
-4 2 5 7.9 2.7
3 -2 -5 4.3 1.3
3 -2 -5 6.6 2.2
3 -2 -5 5.7 1.6
-3 2 5 3 1.9
2 -2 -5 253.07 8.3
2 -2 -5 242.18 8.1
2 -2 -5 253.67 8.4
2 -2 -5 257.37 8.7
-2 2 5 247.48 10
1 -2 -5 532.05 16.3
1 -2 -5 536.85 15.2
1 -2 -5 522.95 16
-1 2 5 516.25 16.8
-1 2 5 497.75 15.5
-1 2 5 517.85 15.6
0 -2 -5 0.4 0.9
0 -2 -5 -0.2 0.3
0 -2 -5 -0.1 1.1
0 -2 -5 -0.9 1.4
0 2 5 -0.5 1.1
0 2 5 1.5 1.6
-1 -2 -5 3889.81 109.09
-1 -2 -5 4017.5 108.69
-1 -2 -5 4189.48 109.49
1 2 5 3917.51 109.19
1 2 5 3659.73 109.19
1 2 5 4044.8 108.79
-2 -2 -5 52.39 3.8
-2 -2 -5 53.49 6.9
-2 -2 -5 47.2 4.2
2 2 5 55.49 5.6
2 2 5 52.79 4.5
2 2 5 47.8 4.7
-3 -2 -5 37.3 4.1
-3 -2 -5 37.6 3.7
-3 -2 -5 42.9 4.5
3 2 5 44.9 4.6
3 2 5 44.1 5.2
3 2 5 38.5 4.2
-4 -2 -5 14.9 2.9
-4 -2 -5 6.8 1.9
-4 -2 -5 9.5 2.6
4 2 5 14.8 3.5
4 2 5 9.6 3.9
4 2 5 8.3 2.4
-5 -2 -5 -1.2 1.6
-5 -2 -5 2.9 2.1
-5 -2 -5 2.8 2.1
-5 -2 -5 0.3 1.6
5 2 5 3 2.6
5 2 5 3.8 1.8
5 2 5 0.9 1.8
-6 -2 -5 29.4 4.8
6 2 5 25.3 5.2
6 2 5 21.9 3.8
6 -3 -5 -0.7 1.1
5 -3 -5 33.2 3
-5 3 5 27.7 4.6
4 -3 -5 13.6 1.9
4 -3 -5 12.7 2.3
4 -3 -5 8.3 2
4 -3 -5 16.1 2.6
-4 3 5 12.5 3.2
3 -3 -5 0.8 1
3 -3 -5 0.6 1.1
3 -3 -5 1.1 1.7
3 -3 -5 0.7 1.3
-3 3 5 0.2 1.6
2 -3 -5 1.4 1.1
2 -3 -5 0 1.6
2 -3 -5 0.4 1
2 -3 -5 0.7 1.2
-2 3 5 0.5 1.5
1 -3 -5 41.8 3.3
1 -3 -5 42.9 4
1 -3 -5 42.9 2.4
1 -3 -5 41.5 3.2
-1 3 5 40.6 3.2
-1 3 5 39.8 3.1
0 -3 -5 184.48 7.8
0 -3 -5 179.68 7.4
0 -3 -5 195.68 8.4
0 3 5 176.48 7.8
0 3 5 176.68 7.5
0 3 5 182.28 7.8
-1 -3 -5 41 3.9
-1 -3 -5 45.5 5.9
-1 -3 -5 39.5 3.5
1 3 5 45.5 4.8
1 3 5 44.5 4.5
1 3 5 46 6.6
-2 -3 -5 1.8 2
-2 -3 -5 0.7 1.2
-2 -3 -5 -0.4 1.5
-2 -3 -5 -0.1 0.6
2 3 5 1.8 2.3
2 3 5 -1 1.3
2 3 5 -0.3 1.7
-3 -3 -5 37.7 2.7
-3 -3 -5 36.9 4.1
-3 -3 -5 46.2 4.9
-3 -3 -5 38.7 4.4
3 3 5 39.6 5
3 3 5 45.5 4.8
3 3 5 32.2 4.9
-4 -3 -5 46.6 4.7
-4 -3 -5 47.5 4.9
-4 -3 -5 53.49 5
4 3 5 52.19 5.8
4 3 5 33.5 5.7
4 3 5 50.99 5.3
-5 -3 -5 23.9 3.7
5 3 5 17.2 3.5
5 3 5 19.3 4.3
-6 -3 -5 11.6 2.9
-6 -3 -5 -0.3 1.2
6 3 5 2.9 2.6
6 3 5 3.4 3.3
6 -4 -5 -1.4 0.9
6 -4 -5 -0.6 1.7
6 -4 -5 -5 2.5
-6 4 5 0.1 2.6
5 -4 -5 19.2 2.6
5 -4 -5 24.2 2.9
5 -4 -5 20.3 2.4
-5 4 5 22.9 4.6
4 -4 -5 15 2.6
4 -4 -5 14.9 2.5
4 -4 -5 15.5 4.1
4 -4 -5 9.4 1.6
-4 4 5 13.4 3.3
3 -4 -5 1.3 2.3
3 -4 -5 5.3 1.5
3 -4 -5 7.4 2
3 -4 -5 5.8 1.9
3 -4 -5 5 1.5
-3 4 5 7.7 2.5
2 -4 -5 0.3 2.2
2 -4 -5 1.7 1.6
2 -4 -5 0.1 2.2
2 -4 -5 1.9 1.2
2 -4 -5 2.6 1.2
-2 4 5 1.4 1.3
-2 4 5 2.3 1.1
-2 4 5 2.9 1.7
1 -4 -5 12.1 2.6
1 -4 -5 13.6 2.6
1 -4 -5 12 3.1
-1 4 5 15 2.6
-1 4 5 11.6 2.3
0 -4 -5 410.86 14.8
0 -4 -5 428.76 15.4
0 -4 -5 403.36 14.1
0 4 5 401.66 14.8
0 4 5 403.06 16.2
0 4 5 413.76 14.3
-1 -4 -5 713.43 23.8
-1 -4 -5 710.43 23.1
-1 -4 -5 748.23 24.2
1 4 5 712.23 24.1
1 4 5 757.42 23.5
1 4 5 718.13 24
-2 -4 -5 5.3 2.1
-2 -4 -5 2.4 2.3
-2 -4 -5 1.3 0.9
-2 -4 -5 0.6 1.2
2 4 5 1.8 2.7
2 4 5 3.6 1.9
2 4 5 2.3 2.2
-3 -4 -5 141.99 5.7
-3 -4 -5 141.79 8.4
-3 -4 -5 151.48 8.4
3 4 5 149.59 9
3 4 5 153.48 8.6
-4 -4 -5 9.7 1.8
-4 -4 -5 11.4 3.2
-4 -4 -5 18 3.6
4 4 5 13.3 3.5
4 4 5 8.7 2.8
-5 -4 -5 -2.4 2.1
-5 -4 -5 5.5 3
5 4 5 4.9 2.7
5 4 5 2.3 2.6
6 -5 -5 6.6 2.3
-6 5 5 1.1 2.7
5 -5 -5 7.8 1.5
5 -5 -5 9.1 1.3
5 -5 -5 12.5 2.3
5 -5 -5 0.8 2.8
-5 5 5 12.1 3.8
4 -5 -5 2 1.6
4 -5 -5 -3 1.4
4 -5 -5 -1.1 1
4 -5 -5 1.1 3.6
-4 5 5 -1 1.7
3 -5 -5 -0.4 1.4
3 -5 -5 1.3 1.2
3 -5 -5 1.8 1.5
3 -5 -5 2 1.7
3 -5 -5 1.8 3.8
-3 5 5 -1.8 1.7
2 -5 -5 4.4 3
2 -5 -5 3.9 2.1
2 -5 -5 4.1 1.5
-2 5 5 1.6 1.8
-2 5 5 1.9 2.1
-2 5 5 2.3 1.5
1 -5 -5 25.8 4.4
1 -5 -5 31.1 4.1
1 -5 -5 28.7 3.4
-1 5 5 27.8 3.7
-1 5 5 33.5 4
0 -5 -5 85.09 5.4
0 -5 -5 83.79 6.7
0 -5 -5 83.29 6
0 5 5 75.89 5.5
0 5 5 75.69 5.9
0 5 5 78.89 6.1
-1 -5 -5 4 2.4
-1 -5 -5 2.8 1.6
-1 -5 -5 0.5 2.7
1 5 5 2.3 1.9
1 5 5 2.4 2.9
1 5 5 2.1 2.3
-2 -5 -5 141.49 5.4
-2 -5 -5 145.09 8.8
-2 -5 -5 152.28 8.5
2 5 5 140.29 8.8
2 5 5 143.19 8.3
-3 -5 -5 88.69 7.3
-3 -5 -5 89.29 4.3
-3 -5 -5 91.79 6.8
3 5 5 83.49 7
3 5 5 96.79 7.7
-4 -5 -5 4.6 2.9
-4 -5 -5 12.9 3.4
-4 -5 -5 10.9 1.8
4 5 5 9.9 3.8
4 5 5 12.8 3.4
-5 -5 -5 3.1 2.9
5 5 5 2.4 2.5
5 5 5 -3.2 2.3
5 -6 -5 3 2.5
5 -6 -5 -3.2 3.4
-5 6 5 1.5 2.5
4 -6 -5 -0.3 3.3
4 -6 -5 1.1 1.2
4 -6 -5 9.4 2.5
-4 6 5 3.3 2.4
3 -6 -5 0.9 1.4
3 -6 -5 -0.5 1.1
3 -6 -5 -1.6 1.9
3 -6 -5 2.6 3
3 -6 -5 1 2.1
-3 6 5 1.6 2.4
2 -6 -5 -0.4 2.6
2 -6 -5 3.6 2.2
-2 6 5 4.3 2.2
-2 6 5 2.5 2.4
1 -6 -5 0.2 2.3
1 -6 -5 1.7 1.5
1 -6 -5 2.6 3.3
-1 6 5 1.8 2.7
-1 6 5 -0.4 1.7
0 -6 -5 83.79 7.5
0 -6 -5 115.99 6.7
0 -6 -5 116.39 7.5
0 6 5 106.09 7.2
0 6 5 109.49 7.8
0 6 5 117.29 7.1
-1 -6 -5 5.7 2.2
-1 -6 -5 5.1 3.2
1 6 5 5.3 4
1 6 5 8 2.3
1 6 5 6.3 2.8
-2 -6 -5 206.68 7.5
-2 -6 -5 192.78 11.1
2 6 5 211.98 11
2 6 5 223.78 11.7
-3 -6 -5 0.1 2.5
-3 -6 -5 0.7 1.4
3 6 5 1.9 2.5
3 6 5 4.5 4
-4 -6 -5 -0.6 2.4
-4 -6 -5 1.9 1.3
4 6 5 6.2 3
4 6 5 2.8 3.1
-5 7 5 4.3 2.8
4 -7 -5 6.6 2.9
4 -7 -5 0.3 1.5
4 -7 -5 -3 3.9
-4 7 5 2.6 2.5
3 -7 -5 -1.7 1.4
3 -7 -5 0.5 2
3 -7 -5 -4.8 2.2
3 -7 -5 4.6 3.8
2 -7 -5 2.1 3.4
2 -7 -5 1.8 2.5
2 -7 -5 0.8 1.5
-2 7 5 1.2 2.6
-2 7 5 1 1.7
1 -7 -5 0 2.4
1 -7 -5 4.3 3.7
1 -7 -5 0.1 1.4
-1 7 5 -0.1 2.1
-1 7 5 1.8 2.5
0 -7 -5 -1.4 1.4
0 -7 -5 -0.7 3.1
0 7 5 -0.8 3.5
0 7 5 0.1 2.2
0 7 5 0.9 2
1 7 5 84.09 7.4
1 7 5 79.99 6.7
-2 -7 -5 4 1.6
-2 -7 -5 5.2 3.1
2 7 5 8.1 3.6
2 7 5 5.4 2.9
-3 -7 -5 -3 1
-3 -7 -5 -2 2.6
3 7 5 2.4 2.6
3 7 5 2.7 3
-4 -7 -5 -1.1 1.2
4 7 5 1.2 2.8
4 7 5 0.2 3.3
-4 8 5 -0.6 2.7
3 -8 -5 -1.2 6.3
-3 8 5 -1.9 2.4
-3 8 5 2.7 2.1
2 -8 -5 -0.9 4.8
-2 8 5 2.3 2
1 -8 -5 -3.6 4.1
1 -8 -5 0.1 1.7
-1 8 5 5.3 2.7
-1 8 5 0.2 3.6
0 -8 -5 -2.4 3.3
0 8 5 4.6 2.7
0 8 5 3.4 2.4
-1 -8 -5 4 4.1
1 8 5 1.2 2.7
1 8 5 2 2.9
-2 -8 -5 2.2 3.5
-2 -8 -5 5.9 1.8
2 8 5 12 3.9
2 8 5 9.8 3.7
3 8 5 -2.4 2.4
3 8 5 -0.7 3.2
3 -9 -5 0.8 1.9
-3 9 5 -2.5 2.9
-3 9 5 1.9 2.6
-2 9 5 2.8 2.5
1 -9 -5 2 4.6
0 9 5 13.6 4
0 9 5 14.5 3.6
1 9 5 13.3 4.1
1 9 5 14.5 3.7
2 9 -6 1.6 3.2
2 9 -6 0.1 2.2
1 9 -6 5.3 2.6
1 9 -6 10.1 3.8
-1 -9 6 8.9 4.5
0 9 -6 1.5 2.3
0 9 -6 0.1 2.9
0 -9 6 5.9 4.3
-1 9 -6 18.2 4.5
-1 9 -6 7.1 2.3
1 -9 6 8.9 1.8
1 -9 6 -1.9 3.8
-2 9 -6 -2.2 1.7
-2 9 -6 3.1 2.9
2 -9 6 -4.3 4.7
2 -9 6 -2.5 1.4
-3 9 -6 0.1 3.3
3 -9 6 0.6 2.2
3 8 -6 1.2 2.2
3 8 -6 1.8 3.1
-3 -8 6 -2.9 3
-3 -8 6 4.3 1.8
2 8 -6 7.1 3.3
2 8 -6 0.4 2.1
-2 -8 6 2.1 3.8
1 8 -6 7.2 3.6
1 8 -6 7.5 2.6
-1 -8 6 2.8 4.7
0 8 -6 22 3.4
0 -8 6 13.2 5.2
-1 8 -6 10 2.3
-1 8 -6 8.6 3.3
1 -8 6 4.4 3.5
1 -8 6 8.7 1.5
-2 8 -6 13 3.8
-2 8 -6 19.6 4.3
2 -8 6 13.3 2
2 -8 6 4.7 4.5
2 -8 6 4.7 4.4
-3 8 -6 0.2 2.6
3 -8 6 -2.9 1.6
3 -8 6 2.4 4.2
-4 8 -6 3.4 4.2
-4 8 -6 0.6 2.6
-4 8 -6 -2.3 1.8
4 7 -6 1.9 2.3
4 7 -6 1 2.7
-4 -7 6 1.5 1.7
-4 -7 6 -2.6 1.8
-4 -7 6 6 2.9
-4 -7 6 1 2.6
3 7 -6 0.1 2.3
-3 -7 6 -2.5 2.6
-3 -7 6 0.4 1.2
-3 -7 6 4 2.6
2 7 -6 1.1 2.1
2 7 -6 -0.1 2.4
-2 -7 6 3.3 2.3
-2 -7 6 0.3 3
1 7 -6 27 3.8
1 7 -6 27.7 4.9
-1 -7 6 38.8 5.1
-1 -7 6 19.4 4.5
-1 -7 6 31.5 4.1
0 7 -6 6.9 3
0 7 -6 5.8 3.2
0 7 -6 9.6 2.2
0 -7 6 2.6 3.1
0 -7 6 6.5 2.8
-1 7 -6 10.2 3.4
-1 7 -6 10.2 3.6
-1 7 -6 4.7 1.6
1 -7 6 7.5 3.7
1 -7 6 8.3 1.3
-2 7 -6 5.8 3.5
-2 7 -6 8.3 1.7
-2 7 -6 13 3.4
2 -7 6 2.4 4
2 -7 6 9.7 1.6
-3 7 -6 4.8 2.8
-3 7 -6 0.2 5.8
3 -7 6 3.9 1.6
3 -7 6 -1.4 4
-4 7 -6 -0.1 1.7
-4 7 -6 5.1 3.4
-4 7 -6 0.9 2.5
4 -7 6 -3.7 3.9
5 6 -6 6.8 3
5 6 -6 1.7 2.5
-5 -6 6 2.7 2.2
-5 -6 6 3 1.9
4 6 -6 3.3 2.1
4 6 -6 4.6 2.8
-4 -6 6 5.4 2
-4 -6 6 2.9 1.7
-4 -6 6 0.9 2
-4 -6 6 3.5 2.2
3 6 -6 9.8 4.5
3 6 -6 9.4 3.2
3 6 -6 9.1 2.5
-3 -6 6 10 3.3
-3 -6 6 9 2.6
-3 -6 6 11.1 2.2
2 6 -6 9.1 3.2
2 6 -6 4.4 3.7
2 6 -6 2.2 2.3
-2 -6 6 5.9 2
-2 -6 6 7.3 3.2
-2 -6 6 12 2.9
1 6 -6 58.69 5.2
1 6 -6 60.79 7
1 6 -6 63.59 6
-1 -6 6 60.09 6
-1 -6 6 51.39 4.7
-1 -6 6 62.29 5.5
0 6 -6 6.4 2
0 6 -6 7.4 2.7
0 6 -6 7.5 3.3
0 -6 6 12.1 3
0 -6 6 4.5 3.4
-1 6 -6 140.49 8.5
-1 6 -6 158.48 6.8
-1 6 -6 160.38 9
1 -6 6 141.89 5.3
1 -6 6 115.49 9
1 -6 6 157.28 9
-2 6 -6 3.8 1.3
-2 6 -6 0.6 2.8
-2 6 -6 3.3 2.5
2 -6 6 3 1.2
2 -6 6 4.1 3.5
2 -6 6 3.8 2.6
-3 6 -6 1.5 2.7
-3 6 -6 0.2 2.1
-3 6 -6 0.2 1.9
3 -6 6 3.5 2.5
3 -6 6 1.4 1.2
3 -6 6 1.4 3.6
-4 6 -6 6.1 2.9
-4 6 -6 2.3 2.3
-4 6 -6 4.6 2
4 -6 6 3.9 3.8
4 -6 6 4.2 3.9
-5 6 -6 0.9 1.9
-5 6 -6 0.8 3.2
-5 6 -6 1 2.1
5 -6 6 2.1 3.7
5 5 -6 15.8 3.7
5 5 -6 16.5 3.9
-5 -5 6 11.6 2.9
-5 -5 6 7.6 2.5
4 5 -6 7.5 4
4 5 -6 9.1 2.9
4 5 -6 3.5 2.2
-4 -5 6 4 2.1
-4 -5 6 2.2 1.5
-4 -5 6 4.2 2.4
3 5 -6 70.69 6
3 5 -6 71.59 6.5
3 5 -6 72.89 6.3
-3 -5 6 77.19 5.6
-3 -5 6 79.39 5.2
-3 -5 6 72.79 4.5
-3 -5 6 83.19 5.8
2 5 -6 100.69 6.6
2 5 -6 99.09 7.2
2 5 -6 104.19 7
-2 -5 6 99.19 6.3
-2 -5 6 106.59 6.8
-2 -5 6 98.59 4.8
-2 -5 6 96.79 6.1
1 5 -6 29.6 4.4
1 5 -6 30.1 4.6
1 5 -6 29.9 3.7
-1 -5 6 28.1 3.4
-1 -5 6 25.9 3.9
-1 -5 6 29.1 4.7
0 5 -6 -0.5 1.1
0 5 -6 -1.7 2.4
0 5 -6 0.4 1.9
0 -5 6 -1.2 2.4
0 -5 6 3.3 2.1
-1 5 -6 411.66 15.5
-1 5 -6 414.86 15.6
-1 5 -6 412.86 13.5
1 -5 6 398.96 15.6
1 -5 6 391.76 11.9
-2 5 -6 9.5 2.8
-2 5 -6 9 3.2
-2 5 -6 6.5 1.3
2 -5 6 7.8 2.9
2 -5 6 8.3 3.6
2 -5 6 6.3 1.3
-3 5 -6 17 2.7
-3 5 -6 12.8 3.3
-3 5 -6 15.4 3.2
3 -5 6 16.5 4.1
-4 5 -6 2.1 2
-4 5 -6 1.9 2.4
-4 5 -6 2.3 1.4
4 -5 6 0.9 3.3
4 -5 6 6.1 3.7
-5 5 -6 2.2 1.9
-5 5 -6 -1.7 1.5
-5 5 -6 3.8 3.6
5 -5 6 0 3.5
6 4 -6 0.6 2.4
6 4 -6 -1.9 2
-6 -4 6 -1.9 1.5
-6 -4 6 3.3 2
5 4 -6 7.5 4.5
5 4 -6 0.3 2.2
5 4 -6 0.8 1.9
-5 -4 6 0.5 1.4
-5 -4 6 -0.5 1.7
4 4 -6 25 4
4 4 -6 25.8 4
4 4 -6 27.1 4.5
-4 -4 6 21.8 3
-4 -4 6 20.3 3
3 4 -6 19.4 3.9
3 4 -6 21.5 3.4
3 4 -6 13 2.6
-3 -4 6 20.9 2.6
-3 -4 6 14.3 2.6
-3 -4 6 17.6 3
-3 -4 6 22.2 3.3
2 4 -6 0.3 1.4
2 4 -6 -2 2
2 4 -6 -0.1 1.7
-2 -4 6 0.1 2.1
-2 -4 6 0.7 0.9
-2 -4 6 2 1.6
1 4 -6 5.9 1.6
1 4 -6 7.7 2.7
1 4 -6 8.6 2.3
-1 -4 6 9.7 2.3
-1 -4 6 9.4 3
-1 -4 6 6.7 0.9
0 4 -6 20.6 3.2
0 4 -6 20.8 3.3
0 4 -6 19.5 2.8
0 -4 6 23.2 3.4
0 -4 6 28.8 4.5
-1 4 -6 949.11 27.3
-1 4 -6 943.51 29.2
-1 4 -6 894.41 29
1 -4 6 901.31 29.1
1 -4 6 975.7 29.8
-2 4 -6 56.59 3
-2 4 -6 55.29 4.9
-2 4 -6 57.49 5.1
2 -4 6 60.69 5.7
-3 4 -6 3.6 1.3
-3 4 -6 1.8 2.1
-3 4 -6 2.2 1.2
-3 4 -6 3.5 2.1
3 -4 6 -0.3 2.6
3 -4 6 1.4 2.9
-4 4 -6 0.6 1.2
-4 4 -6 -0.1 1.6
-4 4 -6 -0.4 2
-4 4 -6 0.9 1.3
4 -4 6 -0.6 2.8
4 -4 6 -1.3 2.2
-5 4 -6 7.3 2.2
-5 4 -6 4.7 3
5 -4 6 5.1 3.5
-6 4 -6 -3.5 1.5
6 3 -6 11 2.8
6 3 -6 6.1 2.7
-6 -3 6 6 2.5
-6 -3 6 4.3 2.4
5 3 -6 78.09 6.4
5 3 -6 77.49 6.3
5 3 -6 80.49 5.8
-5 -3 6 76.69 5.8
-5 -3 6 77.39 5.6
4 3 -6 69.39 6.2
4 3 -6 70.39 6.2
4 3 -6 65.29 5.6
4 3 -6 73.89 5.6
-4 -3 6 73.79 4.9
-4 -3 6 68.69 5.2
3 3 -6 78.39 5.5
3 3 -6 74.29 5.1
3 3 -6 71.09 5.4
-3 -3 6 69.39 3.7
-3 -3 6 79.29 4.8
-3 -3 6 69.69 3.7
-3 -3 6 68.59 4.8
2 3 -6 85.19 5.3
2 3 -6 97.29 8.3
2 3 -6 86.29 5.4
-2 -3 6 91.69 5
-2 -3 6 91.19 4.8
-2 -3 6 92.49 4.1
1 3 -6 33.2 3.4
1 3 -6 35.6 3.3
1 3 -6 30.3 4.1
-1 -3 6 39.6 1.9
-1 -3 6 42.2 3.8
0 3 -6 169.68 7.6
0 3 -6 170.78 6.9
0 -3 6 167.58 7.8
-1 3 -6 377.66 13.7
-1 3 -6 397.26 12.3
-1 3 -6 384.76 13.8
1 -3 6 380.56 13.8
1 -3 6 381.76 15
-2 3 -6 30.4 2.2
-2 3 -6 25.2 3.5
-2 3 -6 27 3.8
2 -3 6 27.4 3.9
2 -3 6 27 4.3
-3 3 -6 1.5 1
-3 3 -6 2.6 0.9
-3 3 -6 5.8 2.1
-3 3 -6 5.5 2.1
-3 3 -6 4 1.2
3 -3 6 1.7 2.7
3 -3 6 5 2.7
-4 3 -6 0 1.1
-4 3 -6 2.5 1.9
-4 3 -6 1.7 1.9
4 -3 6 -0.8 2.6
4 -3 6 2.6 2.8
-5 3 -6 7.5 2.3
-5 3 -6 6.4 2
5 -3 6 8.9 3.7
5 -3 6 14.2 4.1
-6 3 -6 8.8 2.7
6 -3 6 7.2 4.9
6 2 -6 4.4 2.2
6 2 -6 2.3 1.9
-6 -2 6 0.1 1.6
-6 -2 6 0.8 1.4
5 2 -6 40.3 4.5
5 2 -6 47.2 4.1
5 2 -6 57.19 5.2
-5 -2 6 49.4 4.6
-5 -2 6 48.6 4.6
4 2 -6 -1.1 1.4
4 2 -6 -1.5 1.3
4 2 -6 2.2 2
4 2 -6 1.8 1.4
-4 -2 6 -0.5 1
-4 -2 6 0.1 1.5
3 2 -6 67.79 4.6
3 2 -6 71.69 5
3 2 -6 70.89 4.3
3 2 -6 63.59 5
-3 -2 6 69.69 4.7
-3 -2 6 73.29 4.6
2 2 -6 19.5 2.4
2 2 -6 19.5 2.9
2 2 -6 20 2.9
-2 -2 6 22.2 2.8
-2 -2 6 18.3 2
-2 -2 6 20.6 1.9
-2 -2 6 21.5 2.3
1 2 -6 1329.27 38.2
1 2 -6 1304.57 38
1 2 -6 1309.27 38.1
-1 -2 6 1330.57 36.3
-1 -2 6 1317.37 37.8
-1 -2 6 1315.77 37.7
0 2 -6 2227.88 63.29
0 2 -6 2308.87 63.39
0 -2 6 2196.58 63.19
0 -2 6 2269.47 63.39
-1 2 -6 493.05 14.2
-1 2 -6 514.15 16.7
-1 2 -6 487.35 16.4
1 -2 6 500.75 16.6
1 -2 6 492.35 16.6
-2 2 -6 396.86 12.1
-2 2 -6 382.36 13.9
-2 2 -6 389.56 12.2
2 -2 6 379.06 14
-3 2 -6 172.98 7.1
-3 2 -6 171.48 8
-3 2 -6 157.28 7.7
-3 2 -6 162.68 6.1
3 -2 6 161.58 8.5
3 -2 6 166.38 8.6
-4 2 -6 22.1 3.3
-4 2 -6 22.4 3.3
-4 2 -6 19 2.1
-4 2 -6 15.3 2.3
4 -2 6 15.9 2.4
4 -2 6 22.4 4
4 -2 6 24.7 4.3
-5 2 -6 0.8 1
-5 2 -6 0.2 1.3
-5 2 -6 2.6 2.7
-5 2 -6 -1.5 1.6
5 -2 6 1.7 2.6
5 -2 6 4.8 3.5
5 -2 6 -3.4 1.5
-6 2 -6 1 1.7
6 -2 6 -1.7 3.1
6 1 -6 27 3.2
6 1 -6 22.7 3.4
-6 -1 6 15.9 3.3
-6 -1 6 16.1 3.1
5 1 -6 14.2 2.3
5 1 -6 10.8 2.5
5 1 -6 6.4 2.5
5 1 -6 13.1 2.5
-5 -1 6 10.7 2.4
-5 -1 6 11.2 2.5
4 1 -6 7.9 2
4 1 -6 5.9 2.6
4 1 -6 7.9 1.8
4 1 -6 5.8 2
-4 -1 6 4.4 1.6
-4 -1 6 5.8 1.8
3 1 -6 44.5 3.8
3 1 -6 43.9 3.2
3 1 -6 48.5 4.1
3 1 -6 43 2.8
3 1 -6 40.6 3.1
-3 -1 6 45.4 3.6
-3 -1 6 46.8 4
2 1 -6 4.5 1.6
2 1 -6 3.2 0.9
2 1 -6 3.2 1.3
2 1 -6 5.2 1.7
-2 -1 6 4.2 1.1
-2 -1 6 4.5 1.1
1 1 -6 100.29 4.8
1 1 -6 103.89 3.8
1 1 -6 100.09 4.8
1 1 -6 103.59 4.8
-1 -1 6 93.69 4.4
-1 -1 6 103.79 4.6
0 1 -6 15.7 2.5
0 1 -6 15.5 2.3
0 1 -6 16.4 1.5
0 -1 6 16.7 2.5
0 -1 6 15.7 2.4
-1 1 -6 396.96 13.4
-1 1 -6 407.46 13.6
1 -1 6 395.06 13.5
1 -1 6 372.26 13.3
-2 1 -6 236.38 9.7
-2 1 -6 251.47 10
-2 1 -6 254.27 8.7
2 -1 6 251.27 10.2
-3 1 -6 54.29 4.5
-3 1 -6 53.49 4.6
-3 1 -6 57.69 3.5
-3 1 -6 60.49 4.1
3 -1 6 56.89 5.4
3 -1 6 59.09 5.3
3 -1 6 61.29 3.8
-4 1 -6 1.1 1
-4 1 -6 3.6 1.6
-4 1 -6 6.4 2.2
-4 1 -6 4.3 2.1
4 -1 6 5.1 2.7
4 -1 6 2.5 3
4 -1 6 1.4 1.4
-5 1 -6 15.1 2.7
-5 1 -6 11.5 1.9
-5 1 -6 9.4 2.2
5 -1 6 8.4 2.7
5 -1 6 12.5 3.8
5 -1 6 9.2 3.6
-6 1 -6 2.3 1.8
-6 1 -6 -3.7 1.5
6 -1 6 -0.6 3
6 0 -6 3.3 2
-6 0 6 8.6 2.6
-6 0 6 4.2 2.3
5 0 -6 24.5 3.4
5 0 -6 27.2 4
-5 0 6 27.5 3.6
-5 0 6 22.8 3.4
4 0 -6 58.59 4.8
4 0 -6 70.99 4.9
4 0 -6 66.29 4.6
4 0 -6 59.09 5.1
-4 0 6 68.69 4.7
-4 0 6 63.59 4.6
3 0 -6 11.1 1.9
3 0 -6 13 2.3
3 0 -6 7.2 1.5
3 0 -6 8.6 2
-3 0 6 8.6 1.8
-3 0 6 12.4 1.8
2 0 -6 100.99 4.1
2 0 -6 97.49 4.1
2 0 -6 92.99 5.3
2 0 -6 101.09 4.5
-2 0 6 96.59 5.4
-2 0 6 96.89 4.5
1 0 -6 450.35 14.1
1 0 -6 463.85 14.6
1 0 -6 473.55 14.2
-1 0 6 467.15 13.7
-1 0 6 440.36 13.6
-1 0 6 432.26 14.5
-1 0 6 465.15 13.8
0 0 -6 2.5 1.4
0 0 -6 0.8 0.8
0 0 -6 1.5 1.2
0 0 6 0.9 0.7
0 0 6 1.8 1.4
0 0 6 0.6 1.2
-1 0 -6 421.76 14.3
-1 0 -6 427.46 13.6
-1 0 -6 428.76 14.4
1 0 6 431.56 14.5
1 0 6 424.66 14.4
-2 0 -6 974.6 29.4
-2 0 -6 953 29.5
-2 0 -6 971.8 28.2
2 0 6 945.61 29.4
2 0 6 955.4 29.6
-3 0 -6 106.79 6.1
-3 0 -6 109.19 5.4
-3 0 -6 103.59 6.3
3 0 6 111.59 6.9
3 0 6 111.09 6.8
3 0 6 115.89 4.9
3 0 6 106.99 4.3
-4 0 -6 2.5 1.8
-4 0 -6 2.5 1.2
-4 0 -6 2.5 1.3
4 0 6 3.6 1.6
4 0 6 2.7 2.4
4 0 6 3.1 2.6
4 0 6 3.5 1.6
4 0 6 6.7 1.6
-5 0 -6 -1.1 1.6
-5 0 -6 -1.6 1.6
-5 0 -6 -0.4 1.1
-5 0 -6 -1.1 1.1
5 0 6 -0.7 1.4
5 0 6 3.8 1.9
5 0 6 -4.1 2.3
-6 0 -6 0.1 1.8
-6 0 -6 4.6 2.2
6 0 6 11.3 2.6
6 0 6 2.3 5.2
6 -1 -6 37.4 3.9
-6 1 6 25.2 4
5 -1 -6 1.3 1.2
5 -1 -6 3.7 2.1
5 -1 -6 3.3 1.7
-5 1 6 1.1 1.5
-5 1 6 0.7 1.8
4 -1 -6 -1.9 1.3
4 -1 -6 1.4 1.5
4 -1 -6 0.6 1.3
4 -1 -6 0.7 1.2
-4 1 6 0.7 1.5
-4 1 6 1.3 1.3
-4 1 6 1.1 1.8
3 -1 -6 30.5 3.4
3 -1 -6 25.6 2.7
3 -1 -6 29.9 3
-3 1 6 27.6 2.9
-3 1 6 26.8 3.5
2 -1 -6 185.28 6.3
2 -1 -6 180.98 6.7
2 -1 -6 174.48 6
2 -1 -6 169.08 7.9
2 -1 -6 173.58 7
-2 1 6 175.28 6.6
-2 1 6 181.28 8
1 -1 -6 58.89 3.6
1 -1 -6 53.59 2.7
1 -1 -6 57.39 3.3
1 -1 -6 61.79 3.6
-1 1 6 58.19 3.6
-1 1 6 59.39 2.7
-1 1 6 57.19 3
-1 1 6 61.79 3.3
0 -1 -6 65.39 3.9
0 -1 -6 70.29 4.2
0 1 6 61.59 3.3
0 1 6 64.59 2.3
0 1 6 64.49 3.8
0 1 6 63.39 4
-1 -1 -6 743.63 22.8
-1 -1 -6 728.23 22
-1 -1 -6 718.33 22.6
1 1 6 708.73 22.6
1 1 6 735.43 22.9
-2 -1 -6 60.29 5.2
-2 -1 -6 52.49 6.3
-2 -1 -6 68.29 4.7
2 1 6 71.09 2.8
2 1 6 66.49 4.4
2 1 6 71.69 5.3
2 1 6 71.79 5.2
-3 -1 -6 0.5 1.7
-3 -1 -6 -0.3 1.7
-3 -1 -6 0.1 1.1
3 1 6 -0.3 0.9
3 1 6 -0.2 1.9
3 1 6 -0.6 1.4
3 1 6 1.2 2.5
-4 -1 -6 0.1 1.2
-4 -1 -6 0 1.7
-4 -1 -6 -0.4 1.8
4 1 6 -0.6 1.6
4 1 6 1.2 1.1
4 1 6 0 2.8
4 1 6 1 2.2
4 1 6 -0.1 1.1
-5 -1 -6 0.4 1.5
-5 -1 -6 -0.2 1.3
-5 -1 -6 2.2 2.1
5 1 6 0 2.3
5 1 6 -1.3 1.6
5 1 6 3.7 1.8
-6 -1 -6 16 3.2
-6 -1 -6 16.7 2.9
6 1 6 23.5 3.5
6 -2 -6 5.8 1.7
5 -2 -6 -2.9 1.7
5 -2 -6 1.5 1.3
-5 2 6 -2.1 1.6
4 -2 -6 -1.7 1.5
4 -2 -6 -0.4 1.5
4 -2 -6 0 1.1
-4 2 6 0 1.7
3 -2 -6 105.49 5.8
3 -2 -6 110.69 6.6
3 -2 -6 122.29 5.7
-3 2 6 111.89 6.8
2 -2 -6 550.94 17.4
2 -2 -6 588.54 16.9
2 -2 -6 527.75 16.3
2 -2 -6 541.65 16.7
-2 2 6 509.85 18.8
1 -2 -6 721.13 20.1
1 -2 -6 707.63 21.4
1 -2 -6 700.63 21.2
-1 2 6 676.83 20.6
-1 2 6 703.43 20.7
-1 2 6 701.93 22
0 -2 -6 31.5 3
0 -2 -6 33.7 3.5
0 -2 -6 30.3 3
0 2 6 34.1 3.1
0 2 6 33.1 3.7
-1 -2 -6 4.9 1.5
-1 -2 -6 4.9 1.9
-1 -2 -6 4.4 2.1
1 2 6 2.6 1.4
1 2 6 3.8 1.9
1 2 6 4.9 2.9
-2 -2 -6 154.58 7.3
-2 -2 -6 173.38 8.3
-2 -2 -6 156.38 8
2 2 6 177.58 8.5
2 2 6 169.88 8.6
2 2 6 170.28 7.7
-3 -2 -6 10.5 2.7
-3 -2 -6 4.4 1.6
-3 -2 -6 8.1 2.6
3 2 6 10.3 3
3 2 6 7.1 3.3
3 2 6 5.9 2.1
-4 -2 -6 5.3 2
-4 -2 -6 3.7 2.2
-4 -2 -6 6.9 2.5
4 2 6 5.4 3.7
4 2 6 4.2 2.2
4 2 6 4.1 2.6
-5 -2 -6 -2.1 2
-5 -2 -6 0.8 2
-5 -2 -6 -2.1 1.7
5 2 6 1.8 2.6
5 2 6 -0.4 1.4
5 2 6 1.4 2.2
-6 -2 -6 2.2 2.5
-6 -2 -6 3.5 2.1
-6 -2 -6 5.5 2.4
6 2 6 6.8 3.6
6 2 6 6.1 3.2
6 -3 -6 -1.5 1.1
-6 3 6 -0.7 2.2
5 -3 -6 3.8 2.2
-5 3 6 4.5 2.2
4 -3 -6 7.8 2.1
-4 3 6 9.9 3
3 -3 -6 -0.4 1.3
3 -3 -6 0 1.2
3 -3 -6 -0.1 1
3 -3 -6 -0.7 1.5
-3 3 6 0 1.6
2 -3 -6 54.89 4.3
2 -3 -6 56.19 3.4
2 -3 -6 55.69 3.7
2 -3 -6 57.59 3.8
-2 3 6 54.49 4.7
1 -3 -6 62.19 4.2
1 -3 -6 75.09 5
1 -3 -6 70.29 3.2
1 -3 -6 66.39 4.3
-1 3 6 68.89 4.2
-1 3 6 67.49 4.7
-1 3 6 62.49 3.9
0 -3 -6 179.98 5.5
0 -3 -6 173.48 7.5
0 -3 -6 181.88 8.3
0 -3 -6 178.38 8
0 3 6 178.68 7.9
0 3 6 180.98 8.2
-1 -3 -6 17.1 3.1
-1 -3 -6 9.4 1.7
-1 -3 -6 16.4 3.1
1 3 6 15.4 3.6
1 3 6 11.1 2.5
1 3 6 9.2 1.9
-2 -3 -6 3.7 2.4
-2 -3 -6 1.4 1.2
-2 -3 -6 7.3 2.5
2 3 6 4 1.9
2 3 6 2.7 2.2
2 3 6 5.9 2.9
-3 -3 -6 2.1 2.3
-3 -3 -6 3 2.1
-3 -3 -6 -0.3 1.4
3 3 6 0.8 2.1
3 3 6 0.5 2.7
3 3 6 0.5 2
-4 -3 -6 -1.8 1.8
-4 -3 -6 -0.4 1.2
-4 -3 -6 1.3 2.1
4 3 6 -0.5 2.2
4 3 6 -1 1.7
4 3 6 -0.5 3.5
-5 -3 -6 0.6 2.3
-5 -3 -6 2.9 2.5
5 3 6 2 4
5 3 6 1.3 2.2
6 -4 -6 -3.1 1.5
-6 4 6 -0.7 2.5
5 -4 -6 2.1 1.4
5 -4 -6 3.3 1.5
-5 4 6 4.3 2.5
4 -4 -6 0.7 1.6
4 -4 -6 -0.2 2.4
4 -4 -6 0.3 1.4
-4 4 6 -0.1 2.1
3 -4 -6 26.5 3.1
3 -4 -6 22.4 2.7
3 -4 -6 20.4 3.6
3 -4 -6 27.5 3.3
-3 4 6 28.4 4.5
2 -4 -6 50.69 3.5
2 -4 -6 52.99 4
2 -4 -6 51.09 4.7
-2 4 6 50.39 3.1
-2 4 6 52.49 3.1
-2 4 6 49.2 4.7
1 -4 -6 -0.9 1.1
1 -4 -6 0.2 0.9
1 -4 -6 -0.3 1.7
1 -4 -6 3.1 3.2
-1 4 6 0.1 1.4
-1 4 6 -1.4 1.8
0 -4 -6 726.33 23.4
0 -4 -6 693.23 22.2
0 -4 -6 689.73 22.8
0 4 6 676.73 22.5
0 4 6 687.63 22.8
-1 -4 -6 123.19 6.7
-1 -4 -6 132.59 7.8
-1 -4 -6 121.39 7.2
1 4 6 129.19 7.1
1 4 6 133.49 7.7
1 4 6 116.19 7.8
-2 -4 -6 16.8 3.4
-2 -4 -6 17.5 1.5
-2 -4 -6 22.8 4.1
-2 -4 -6 18 3.1
2 4 6 13.3 2.9
2 4 6 22.1 3.9
2 4 6 25.9 5.2
-3 -4 -6 9.9 3.2
-3 -4 -6 14.3 1.9
-3 -4 -6 12.6 2.9
-3 -4 -6 16.9 3.7
3 4 6 11.1 2.8
3 4 6 18.1 7.9
3 4 6 17.6 3.9
-4 -4 -6 -0.7 2.1
-4 -4 -6 -2.8 1.9
4 4 6 -0.1 2.3
4 4 6 -0.8 2
-5 -4 -6 36.1 5.7
5 4 6 38.6 5.9
5 4 6 29.2 4.4
6 -5 -6 7.8 2.2
-6 5 6 -0.7 2.5
5 -5 -6 3.5 1.8
5 -5 -6 -1.8 3.6
5 -5 -6 2.3 1.2
-5 5 6 -1 2.2
4 -5 -6 4.1 1.7
4 -5 -6 2.2 1.7
4 -5 -6 0 1.2
4 -5 -6 -1.1 3.5
-4 5 6 1.2 2.2
3 -5 -6 2.1 2.6
3 -5 -6 2.1 2.7
3 -5 -6 3.5 1.5
3 -5 -6 3.3 1.8
3 -5 -6 2.5 1.6
3 -5 -6 4.4 1.8
-3 5 6 6.9 2.8
2 -5 -6 -0.7 1.2
2 -5 -6 -3.1 2.5
2 -5 -6 -0.8 1.6
2 -5 -6 1.6 1.4
-2 5 6 -0.5 1.3
-2 5 6 -0.1 2
-2 5 6 -0.3 1.6
1 -5 -6 13.7 2.4
1 -5 -6 16.9 4.1
1 -5 -6 18.2 3.2
-1 5 6 14.4 3.3
-1 5 6 12.6 2.7
0 -5 -6 34 4.5
0 -5 -6 33.4 5.5
0 -5 -6 35.1 3.9
0 5 6 35.5 4.5
0 5 6 34.8 4.5
0 5 6 31 4.6
-1 -5 -6 1.2 1.4
-1 -5 -6 -0.2 2.3
-1 -5 -6 2 2.1
1 5 6 -1.4 2
1 5 6 0.7 1.7
1 5 6 1.2 2.7
-2 -5 -6 6.1 1.1
-2 -5 -6 6.8 2.9
-2 -5 -6 5.2 2.8
2 5 6 4.1 2.8
2 5 6 7.4 3.8
2 5 6 3.3 2.1
-3 -5 -6 20 2.1
-3 -5 -6 20.3 4
-3 -5 -6 26.4 4.3
3 5 6 21.8 4.3
3 5 6 21.1 3.8
-4 -5 -6 6.8 2.1
-4 -5 -6 2 2.7
4 5 6 8.4 3.2
4 5 6 8 3.5
5 5 6 14.5 4.5
5 5 6 12.7 3.5
5 -6 -6 -0.2 1.1
5 -6 -6 0.1 2.2
5 -6 -6 -1.5 3.2
-5 6 6 -1.3 2.5
4 -6 -6 0.8 1.9
4 -6 -6 -2.4 1.2
-4 6 6 0.7 2.1
3 -6 -6 -2.8 1.3
3 -6 -6 0.3 2
3 -6 -6 -1.6 1
3 -6 -6 -1 3.1
-3 6 6 0.8 2
2 -6 -6 0.1 1.3
2 -6 -6 2.1 3
2 -6 -6 -1.3 1.3
2 -6 -6 1.8 2.1
-2 6 6 0.4 1.5
-2 6 6 1.1 2.2
-2 6 6 -1 1.8
1 -6 -6 97.69 6.1
1 -6 -6 100.09 7
1 -6 -6 93.79 8
-1 6 6 104.39 7.1
-1 6 6 96.59 6.3
0 -6 -6 74.99 5.6
0 -6 -6 77.09 6.4
0 -6 -6 73.09 7.1
0 6 6 82.19 6.5
0 6 6 73.99 6
0 6 6 64.99 6.3
-1 -6 -6 -0.3 1.3
-1 -6 -6 2 2.7
1 6 6 -0.5 1.9
1 6 6 2.3 2.2
-2 -6 -6 36.1 2.5
-2 -6 -6 23.7 4.5
2 6 6 36.1 4.9
2 6 6 39.8 5.8
-3 -6 -6 5.9 1.3
-3 -6 -6 5.6 3.4
3 6 6 10.9 3.3
3 6 6 11 3.7
-4 -6 -6 -1.6 2.5
-4 -6 -6 5.3 1.5
4 6 6 10.2 3.8
4 6 6 5.7 3.2
-5 7 6 5.7 3.3
4 -7 -6 -1.6 4
4 -7 -6 5.6 2.6
-4 7 6 7.1 3.1
3 -7 -6 -2.1 1.7
3 -7 -6 0.2 2.5
3 -7 -6 -0.2 1.6
3 -7 -6 -5.2 3.5
-3 7 6 -1 2.3
2 -7 -6 -4.5 2.9
2 -7 -6 0.7 2.5
2 -7 -6 -1.6 1.4
-2 7 6 0.7 2.6
-2 7 6 2.7 2
-2 7 6 0.8 2.4
1 -7 -6 24.1 5.6
1 -7 -6 9 4.2
-1 7 6 13.7 3.3
-1 7 6 17.6 4
0 -7 -6 0.8 1.6
0 -7 -6 -0.1 3.2
0 7 6 1.8 2.3
0 7 6 -4.1 3.4
-1 -7 -6 21.3 7.5
1 7 6 21 4.3
1 7 6 19.7 3.7
-2 -7 -6 25 2.4
2 7 6 27 5.1
2 7 6 25.3 4.5
-3 -7 -6 4.4 2
-3 -7 -6 -0.4 3
3 7 6 -0.4 2.5
3 7 6 5.1 3.3
-4 8 6 2.5 3.1
3 -8 -6 0.3 5.4
-3 8 6 0 2.8
2 -8 -6 -1.3 1.8
2 -8 -6 9 5.1
-2 8 6 0.8 2.1
-2 8 6 -1.9 2.9
1 -8 -6 19.7 4.7
-1 8 6 27.5 4.5
0 -8 -6 0.4 3.5
0 -8 -6 0.7 3.5
0 8 6 1.6 2.7
0 8 6 1.2 2.2
1 8 6 53.99 6.9
1 8 6 46.5 6.3
-2 -8 -6 0.7 3.1
2 8 6 1.3 2.8
2 8 6 -1.5 2.8
-2 9 6 3.3 2.7
-1 9 6 -1 3.2
0 9 6 10.8 3.6
0 9 6 14.9 3.8
1 9 6 3.6 3.4
1 9 6 2.7 3.2
2 9 -7 5.9 3.8
2 9 -7 -3.5 2.2
1 9 -7 7.8 3.9
1 9 -7 2 2.6
-1 -9 7 0.5 4.2
0 9 -7 107.79 9.6
0 9 -7 103.99 7.4
0 -9 7 88.09 4.5
-1 9 -7 11.5 2.7
-1 9 -7 11.3 4.2
1 -9 7 4.9 1.4
1 -9 7 -5.3 4
-2 9 -7 3.6 3.4
-2 9 -7 -1.8 1.8
3 8 -7 5.9 3.4
3 8 -7 0.5 2.2
-3 -8 7 2.1 1.7
-3 -8 7 -2.9 3.1
2 8 -7 -2.7 2.3
2 8 -7 -2.9 1.9
-2 -8 7 -2.8 3.2
1 8 -7 18.6 3.5
-1 -8 7 17.4 4.8
0 8 -7 -0.9 1.7
0 8 -7 1.3 3.1
0 -8 7 7.9 4.3
-1 8 -7 20.8 3.1
-1 8 -7 24.3 5.3
-2 8 -7 1.7 1.3
-2 8 -7 2.6 5.4
2 -8 7 0 3.9
2 -8 7 -2.2 1.1
3 -8 7 -4.7 3.8
-4 8 -7 5 3.1
4 7 -7 -5.3 2.5
4 7 -7 -2.3 2.2
-4 -7 7 -1.2 2.3
-4 -7 7 -0.7 2.5
-4 -7 7 1.7 1.9
3 7 -7 -2.6 1.9
3 7 -7 -2.1 2.9
-3 -7 7 2.5 3
-3 -7 7 0.6 1.2
-3 -7 7 -2.4 2.7
2 7 -7 25 3.9
2 7 -7 27.1 4.9
-2 -7 7 28 3
-2 -7 7 36.3 5.1
-2 -7 7 27.7 4.6
1 7 -7 3.4 2.3
1 7 -7 6.5 3.2
-1 -7 7 10.6 3.2
-1 -7 7 3.5 3.4
0 7 -7 82.59 5.8
0 7 -7 80.89 7.2
-1 7 -7 3.6 2.8
-1 7 -7 3.3 1.6
-1 7 -7 1.2 3.9
1 -7 7 3.5 3.5
-2 7 -7 2.4 1.4
-2 7 -7 -0.4 3.2
-2 7 -7 4.9 2.8
2 -7 7 5.4 1.3
2 -7 7 0.4 3.3
-3 7 -7 0.3 2.4
-3 7 -7 5 3.6
3 -7 7 0.8 3.5
-4 7 -7 1.4 2.7
-4 7 -7 1.8 5.9
-4 7 -7 3.1 1.8
4 -7 7 -5 4.5
5 6 -7 5 2.7
5 6 -7 7.5 3.5
-5 -6 7 4.7 2.5
-5 -6 7 9.2 2.8
4 6 -7 3.1 2.5
4 6 -7 9.7 3.4
-4 -6 7 3.4 2.3
-4 -6 7 5.4 2.1
-4 -6 7 5.5 1.8
3 6 -7 0.6 2.5
3 6 -7 -0.8 2
-3 -6 7 -0.4 1.9
-3 -6 7 -1.4 0.9
-3 -6 7 -0.7 2.4
2 6 -7 35.1 5.3
2 6 -7 39.5 6.1
2 6 -7 22.8 3.5
-2 -6 7 34.1 5.2
-2 -6 7 27.9 2.6
-2 -6 7 38.3 4.7
1 6 -7 55.19 5.1
1 6 -7 55.69 6.5
1 6 -7 55.69 5.8
-1 -6 7 53.29 6
-1 -6 7 55.89 5.5
0 6 -7 31.5 6.7
0 6 -7 29.5 4.8
0 6 -7 30.1 3.6
0 -6 7 33.5 5.7
0 -6 7 29 4.8
-1 6 -7 48.8 3.9
-1 6 -7 40.5 5.6
-1 6 -7 45.9 5.6
1 -6 7 38.9 6.2
-2 6 -7 1.6 2.9
-2 6 -7 2.3 1.2
-2 6 -7 0.8 2.4
2 -6 7 -0.2 3
2 -6 7 2 2.2
-3 6 -7 1.1 1.8
-3 6 -7 2.1 2.4
-3 6 -7 2.2 3
3 -6 7 1.9 3.5
-4 6 -7 -0.1 1.5
-4 6 -7 0.4 2.7
-4 6 -7 1 2.4
4 -6 7 -1.4 5.1
-5 6 -7 0.6 3
-5 6 -7 -0.7 2.2
-5 6 -7 -0.5 1.8
5 -6 7 -0.1 4.2
5 5 -7 3.3 2.5
5 5 -7 2.8 2.6
-5 -5 7 0.3 2
-5 -5 7 -0.1 1.5
4 5 -7 5.1 2.6
4 5 -7 3.5 3.9
4 5 -7 6.9 2.5
-4 -5 7 4.3 1.6
-4 -5 7 4.8 2
-4 -5 7 2.3 2.2
-4 -5 7 6.3 2
3 5 -7 1.9 2.2
3 5 -7 -1.5 2.5
3 5 -7 -0.7 1.6
-3 -5 7 -0.4 2.2
-3 -5 7 -0.2 1.9
-3 -5 7 0.9 1.2
2 5 -7 137.39 8.5
2 5 -7 142.99 8.4
2 5 -7 129.89 7.7
-2 -5 7 142.59 8.1
-2 -5 7 136.59 5.7
-2 -5 7 137.39 7.4
1 5 -7 12.7 3.2
1 5 -7 12.9 3.5
1 5 -7 12.2 2.4
-1 -5 7 15.8 3.6
-1 -5 7 13 1.4
-1 -5 7 12.6 2.7
0 5 -7 15.2 3.4
0 5 -7 19.3 3.7
0 5 -7 15 2.4
0 -5 7 16.8 3.3
0 -5 7 17.3 4.1
-1 5 -7 3.3 2.9
-1 5 -7 0.6 2.3
-1 5 -7 2.1 1.2
1 -5 7 2.9 2.3
1 -5 7 -1.1 2.7
-2 5 -7 46.4 3
-2 5 -7 42.8 5
-2 5 -7 48.2 5.3
2 -5 7 49 6.1
-3 5 -7 5.7 2.3
-3 5 -7 2.9 1.5
-3 5 -7 4.2 2.7
3 -5 7 -4.3 2.9
3 -5 7 5.4 3.5
-4 5 -7 0.4 1.3
-4 5 -7 1.9 2.5
-4 5 -7 1.3 2.1
4 -5 7 1.5 3.1
-5 5 -7 -0.9 2.6
-5 5 -7 -0.1 2.2
5 -5 7 -2.2 3.6
6 4 -7 7.4 2.8
6 4 -7 10.4 3.2
-6 -4 7 6.3 2.6
-6 -4 7 5.3 2.1
5 4 -7 -0.2 2
5 4 -7 -2.4 1.7
5 4 -7 -0.6 4.1
-5 -4 7 0.7 1.5
-5 -4 7 -1.5 1.7
4 4 -7 1.7 3.1
4 4 -7 4.8 2.6
4 4 -7 4.7 2
-4 -4 7 5.4 2
-4 -4 7 2.8 1.4
3 4 -7 13.4 3
3 4 -7 8.2 2.4
3 4 -7 13.6 3.4
-3 -4 7 11.1 2.6
-3 -4 7 11.2 2.4
-3 -4 7 11 1.8
-3 -4 7 16.3 2.9
2 4 -7 185.78 8.8
2 4 -7 182.48 8.9
2 4 -7 183.88 9.2
-2 -4 7 179.78 6.7
1 4 -7 34.8 4.1
1 4 -7 37.2 4.5
1 4 -7 40.9 3.9
-1 -4 7 34.9 3.8
-1 -4 7 40.1 4.7
-1 -4 7 33.5 1.8
0 4 -7 499.15 17.4
0 4 -7 505.55 16.2
0 4 -7 457.95 17
0 -4 7 492.35 17.5
0 -4 7 467.15 17
-1 4 -7 -0.4 1.9
-1 4 -7 1.3 1.1
-1 4 -7 0.2 2.1
1 -4 7 -0.7 2.5
-2 4 -7 19.8 3.5
-2 4 -7 18.4 2.1
-2 4 -7 17 3.6
2 -4 7 20.2 3.8
2 -4 7 20.7 4.1
-3 4 -7 27.1 2.6
-3 4 -7 29.2 4.2
-3 4 -7 24.7 2
-3 4 -7 26 1.9
-3 4 -7 24.1 2.3
-3 4 -7 25.8 4.1
3 -4 7 33.4 5.1
3 -4 7 35.3 5.1
-4 4 -7 -0.9 1.1
-4 4 -7 -0.8 1.8
-4 4 -7 1.9 1.2
-4 4 -7 -0.6 2.1
4 -4 7 -2.3 2.9
4 -4 7 3 3.1
-5 4 -7 0.8 2.2
-5 4 -7 -1.1 1.4
-5 4 -7 1.5 2.1
5 -4 7 0.3 3.3
-6 4 -7 1.4 2
6 3 -7 3.6 6
6 3 -7 6.9 2.7
6 3 -7 3.2 2.4
-6 -3 7 4.8 2.1
-6 -3 7 4.9 2.2
5 3 -7 -1.4 3.1
5 3 -7 2.8 2.1
5 3 -7 -0.3 1.9
-5 -3 7 3.8 2.7
-5 -3 7 1.5 1.7
4 3 -7 54.39 5.1
4 3 -7 54.79 4.6
4 3 -7 56.29 5.3
-4 -3 7 50.59 4.6
-4 -3 7 55.19 4.2
3 3 -7 207.48 9.8
3 3 -7 211.98 9.2
3 3 -7 224.38 9.8
-3 -3 7 215.78 7.5
-3 -3 7 215.18 9.3
-3 -3 7 219.18 9.4
2 3 -7 53.89 4.7
2 3 -7 44.8 4.1
2 3 -7 47.8 4.1
-2 -3 7 44.7 3.7
-2 -3 7 48.3 2.9
-2 -3 7 47.7 3.6
1 3 -7 168.98 8.9
1 3 -7 165.38 7.7
1 3 -7 163.38 7.5
-1 -3 7 160.28 5.2
-1 -3 7 161.78 7.3
-1 -3 7 154.98 7.4
0 3 -7 1260.27 39.2
0 3 -7 1315.57 42.2
0 3 -7 1338.87 38.5
0 -3 7 1414.46 40.1
0 -3 7 1304.77 39.4
-1 3 -7 -0.6 1.8
-1 3 -7 -0.6 1.5
1 -3 7 0 1.9
1 -3 7 -0.8 1.9
-2 3 -7 128.99 7.1
-2 3 -7 128.69 5
-2 3 -7 123.29 4.8
-2 3 -7 132.99 7.1
2 -3 7 138.19 7.7
2 -3 7 130.59 7.5
-3 3 -7 14.6 1.6
-3 3 -7 13.5 1.9
-3 3 -7 14.1 2
-3 3 -7 15.5 3
-3 3 -7 20.4 3.5
3 -3 7 21.2 4.2
3 -3 7 20 4
-4 3 -7 7.6 1.8
-4 3 -7 15.5 3.1
-4 3 -7 11.7 1.6
-4 3 -7 12.5 2.8
4 -3 7 16.6 4.1
4 -3 7 11.8 3.5
-5 3 -7 5.9 2.1
-5 3 -7 5.3 2.4
-5 3 -7 1.2 1.5
5 -3 7 3.7 3.5
-6 3 -7 3 1.9
6 -3 7 2.8 3.6
6 2 -7 2.9 3
6 2 -7 -1.3 1.6
-6 -2 7 -1.5 1.9
-6 -2 7 -0.3 1.4
5 2 -7 2.9 1.7
5 2 -7 7.5 2.2
5 2 -7 1.8 2.6
-5 -2 7 3.7 1.6
-5 -2 7 5 1.9
4 2 -7 6.9 3.4
4 2 -7 4.7 2
4 2 -7 2.6 2.1
4 2 -7 5.2 1.7
-4 -2 7 0.1 1.6
-4 -2 7 1.7 1.2
3 2 -7 0.7 1.3
3 2 -7 1.2 1.6
3 2 -7 -1.4 1.9
3 2 -7 1 1.4
-3 -2 7 -1 1.3
-3 -2 7 0.4 1.2
2 2 -7 41.1 3.6
2 2 -7 32.7 3.1
2 2 -7 34.8 3.4
2 2 -7 35.7 3.6
-2 -2 7 34.5 2.7
-2 -2 7 37.4 2.5
-2 -2 7 38.4 2.6
-2 -2 7 37.7 3.4
1 2 -7 50.09 2.2
1 2 -7 48.1 3.9
1 2 -7 46.3 3.7
-1 -2 7 49.5 3.8
-1 -2 7 43.9 3.4
0 2 -7 2218.18 60.69
0 2 -7 2102.49 60.39
0 -2 7 2025.1 60.29
0 -2 7 2191.38 60.59
-1 2 -7 259.47 7.8
-1 2 -7 255.47 10.2
-1 2 -7 254.97 10.3
1 -2 7 260.37 10.5
1 -2 7 248.48 10.2
-2 2 -7 36.4 3.8
-2 2 -7 36.5 4
-2 2 -7 33.9 2.8
-2 2 -7 33.5 2.4
2 -2 7 35.2 4.3
2 -2 7 36.5 4.1
-3 2 -7 0.2 1.8
-3 2 -7 0.9 1
-3 2 -7 1.4 1.8
-3 2 -7 -0.4 1.1
3 -2 7 -0.1 2.5
3 -2 7 -2.6 2.2
-4 2 -7 42 3.6
-4 2 -7 37 3
-4 2 -7 38.2 4.2
-4 2 -7 40 4.4
4 -2 7 38.9 5.5
4 -2 7 37.7 3.8
4 -2 7 35.7 5.7
-5 2 -7 23 3.5
-5 2 -7 12.4 2.5
-5 2 -7 23.6 3.7
-5 2 -7 13.9 1.9
5 -2 7 14.7 3
5 -2 7 27.3 5.1
-6 2 -7 -1.5 1.8
-6 2 -7 -1.9 1.2
6 -2 7 -1.3 3.4
6 1 -7 8 3
6 1 -7 20.7 2.8
6 1 -7 12.8 2.9
-6 -1 7 13.2 3
-6 -1 7 15.7 3.1
5 1 -7 37.6 3.2
5 1 -7 26.1 3.3
5 1 -7 32.6 4.3
-5 -1 7 39.1 4.1
-5 -1 7 33.8 3.9
4 1 -7 42.3 3.1
4 1 -7 36.3 4.3
4 1 -7 43.1 4.4
-4 -1 7 32.4 3.8
-4 -1 7 36.9 3.7
3 1 -7 34.3 2.8
3 1 -7 33.2 3.1
3 1 -7 39.9 3.1
3 1 -7 36.4 3.7
3 1 -7 32.5 3.7
-3 -1 7 35.3 3.3
-3 -1 7 34 3.4
2 1 -7 1.9 0.9
2 1 -7 4 1.6
2 1 -7 4.4 1.6
2 1 -7 1.9 1.4
-2 -1 7 2.2 1
-2 -1 7 2.9 1
1 1 -7 803.32 24.1
1 1 -7 791.92 24.2
1 1 -7 804.82 24
1 1 -7 800.92 22.8
-1 -1 7 820.82 23.7
-1 -1 7 779.02 23.5
0 1 -7 1892.51 51.49
0 1 -7 1777.62 52.59
0 1 -7 1898.21 52.89
0 -1 7 1866.11 52.69
-1 1 -7 12.6 2.6
-1 1 -7 9 2.1
1 -1 7 11.2 2.4
1 -1 7 7.9 2.2
-2 1 -7 0.1 1.6
-2 1 -7 1.9 2
-2 1 -7 0.2 1
2 -1 7 -0.2 2
2 -1 7 3.1 2
-3 1 -7 36.9 3.1
-3 1 -7 35 4.1
-3 1 -7 37.8 3.2
3 -1 7 36.9 5
3 -1 7 32.8 4.6
-4 1 -7 37.4 3.8
-4 1 -7 44.1 3.9
-4 1 -7 36.4 4.2
-4 1 -7 38.3 4.3
4 -1 7 38.9 5.3
4 -1 7 38.7 5.4
4 -1 7 34.4 3.4
-5 1 -7 69.89 5.4
-5 1 -7 69.49 5.4
-5 1 -7 77.79 5.4
-5 1 -7 58.59 4.3
5 -1 7 59.89 6.7
5 -1 7 56.29 5.1
-6 1 -7 -2 1.7
-6 1 -7 2.3 1.9
6 -1 7 3.9 3.5
6 0 -7 14.6 2.8
-6 0 7 11.6 3
-6 0 7 6.1 2.3
5 0 -7 0 1.5
5 0 -7 4.6 2.9
5 0 -7 -1.3 1.2
-5 0 7 -0.6 1.6
-5 0 7 -0.5 1.3
4 0 -7 14.9 2.9
4 0 -7 22 3.4
4 0 -7 16.9 2.6
4 0 -7 17.2 2.5
-4 0 7 17.7 2.9
-4 0 7 17.5 2.9
3 0 -7 1.6 1
3 0 -7 0.3 1.3
3 0 -7 0.7 1
3 0 -7 -2.4 1.5
3 0 -7 0.1 1.3
-3 0 7 0 1.2
-3 0 7 0.3 1
2 0 -7 417.46 12.9
2 0 -7 404.56 15.4
2 0 -7 419.16 13.3
2 0 -7 405.36 12.9
-2 0 7 422.86 13.3
-2 0 7 399.16 14.5
1 0 -7 3238.68 90.99
1 0 -7 3266.77 91.29
1 0 -7 3395.66 91.19
-1 0 7 3349.47 90.59
-1 0 7 3217.28 90.49
-1 0 7 3332.07 91.49
-1 0 7 3369.46 90.29
0 0 -7 600.64 18.7
0 0 -7 586.04 18.6
0 0 -7 590.74 17.4
0 0 7 585.64 18.5
0 0 7 585.84 17.5
0 0 7 583.34 18.6
-1 0 -7 758.72 22.7
-1 0 -7 758.02 23.9
-1 0 -7 759.02 23.7
1 0 7 755.22 23.6
1 0 7 733.03 23.7
-2 0 -7 220.88 8.4
-2 0 -7 222.88 9.5
-2 0 -7 211.88 9.3
2 0 7 203.18 9.5
2 0 7 222.38 9.6
-3 0 -7 34.9 4.3
-3 0 -7 33.5 4.1
-3 0 -7 33.8 3.1
3 0 7 33.9 2.7
3 0 7 33.9 4.7
3 0 7 31.2 4.5
-4 0 -7 -0.6 1.2
-4 0 -7 0.4 1.9
-4 0 -7 -0.6 2.1
-4 0 -7 -1.6 1.1
4 0 7 1.8 3.8
4 0 7 0.9 1
4 0 7 2.7 2.5
4 0 7 -1.9 1
-5 0 -7 -0.3 1.6
-5 0 -7 1.7 2.1
-5 0 -7 -0.1 1.8
-5 0 -7 -0.1 1.3
5 0 7 1.2 2.9
5 0 7 1 1.5
5 0 7 -0.7 1.4
-6 0 -7 2.2 2.1
-6 0 -7 -2.8 1.8
-6 0 -7 -1.6 3.3
-6 0 -7 0.3 1.9
6 0 7 -1.8 3.1
6 0 7 -3.8 2
6 -1 -7 1.7 1.5
-6 1 7 0.3 1.8
5 -1 -7 3.8 2
5 -1 -7 1.3 1.6
-5 1 7 1.1 1.5
-5 1 7 3.1 1.9
4 -1 -7 0.1 1.1
4 -1 -7 0 1.4
4 -1 -7 0.5 1.5
4 -1 -7 0.2 1.2
-4 1 7 0.5 1.8
-4 1 7 1.2 1.5
3 -1 -7 2.7 1.2
3 -1 -7 8.7 2.3
3 -1 -7 4.2 1.6
-3 1 7 3.4 2
-3 1 7 5.6 1.6
2 -1 -7 0 1
2 -1 -7 0.9 1.4
2 -1 -7 0.3 1.1
2 -1 -7 2 1.3
-2 1 7 -0.7 1.2
-2 1 7 1.4 1
1 -1 -7 146.19 6.2
1 -1 -7 141.39 6.3
1 -1 -7 147.29 6.4
-1 1 7 156.48 6.1
-1 1 7 133.59 5.6
-1 1 7 144.69 5.2
-1 1 7 143.89 6.5
0 -1 -7 1130.59 33.1
0 -1 -7 1147.49 33.3
0 1 7 1093.19 30.7
0 1 7 1139.99 32.3
0 1 7 1102.59 32.9
-1 -1 -7 326.37 12.3
-1 -1 -7 336.57 12.2
-1 -1 -7 354.16 12.7
1 1 7 334.97 14
1 1 7 313.27 12.2
-2 -1 -7 116.39 6.6
-2 -1 -7 123.69 6.8
-2 -1 -7 119.09 6
2 1 7 121.79 4.2
2 1 7 118.39 7.2
2 1 7 128.39 7
-3 -1 -7 1.8 1.9
-3 -1 -7 0.6 1.3
-3 -1 -7 -0.7 1.6
3 1 7 -1 0.9
3 1 7 2 2.8
3 1 7 -0.7 2
-4 -1 -7 33.6 3.9
-4 -1 -7 42.6 4.8
-4 -1 -7 38 4.5
4 1 7 42.8 4.5
4 1 7 40 6
4 1 7 40.2 5.3
4 1 7 34.4 2.8
4 1 7 38.2 3.2
-5 -1 -7 -1.9 1.2
-5 -1 -7 1.9 2.2
-5 -1 -7 -0.4 1.5
5 1 7 -0.5 2.4
5 1 7 3.5 1.6
5 1 7 0.1 1.7
5 1 7 -1 1.6
-6 -1 -7 18.1 3.4
-6 -1 -7 16.1 3.4
6 1 7 14.7 4.3
6 -2 -7 6.2 1.8
5 -2 -7 11.3 2.2
-5 2 7 10.3 2.9
4 -2 -7 0.1 1.1
4 -2 -7 2.9 1.4
4 -2 -7 0.3 1.7
4 -2 -7 3.6 1.9
4 -2 -7 0.1 0.6
-4 2 7 1.3 1.9
3 -2 -7 1.7 1.4
3 -2 -7 1.8 1.2
3 -2 -7 2.9 1.6
3 -2 -7 1.5 1.2
3 -2 -7 1.2 1.8
-3 2 7 2.2 1.8
2 -2 -7 21.8 2.4
2 -2 -7 25.3 2.6
2 -2 -7 26.2 3.2
2 -2 -7 19.6 2.5
-2 2 7 27.1 3.3
1 -2 -7 47.5 2.5
1 -2 -7 51.59 3.7
1 -2 -7 46.3 3.9
-1 2 7 46.4 3.2
-1 2 7 49.6 3.8
-1 2 7 45.9 3.4
0 -2 -7 146.69 8.2
0 -2 -7 154.68 6.8
0 -2 -7 163.08 7.4
0 2 7 148.89 7.2
0 2 7 142.29 6.8
0 2 7 156.28 6.7
-1 -2 -7 544.95 17.5
-1 -2 -7 562.74 18.4
-1 -2 -7 527.95 17.9
1 2 7 537.95 18.1
1 2 7 486.65 18.1
-2 -2 -7 186.68 9.1
-2 -2 -7 193.18 8.4
-2 -2 -7 193.88 9.4
2 2 7 185.98 9.3
2 2 7 202.88 8.7
2 2 7 195.98 9.6
-3 -2 -7 2.4 1.3
-3 -2 -7 6.4 2.5
-3 -2 -7 0.7 2.1
3 2 7 5.6 2.2
3 2 7 1.5 2.3
3 2 7 5.6 3.2
-4 -2 -7 -0.6 2
-4 -2 -7 0.1 2.1
-4 -2 -7 -0.6 1.3
4 2 7 -1.1 1.6
4 2 7 -3.5 3.4
4 2 7 -2.1 2.1
-5 -2 -7 5.4 2.4
-5 -2 -7 -3.4 2.1
5 2 7 1.7 3.6
5 2 7 2.1 2.1
5 2 7 2.1 1.6
-6 -2 -7 2.6 3
-6 -2 -7 -0.4 2.4
-6 -2 -7 -2.5 1.7
6 2 7 -4.6 1.9
6 2 7 1.1 4.9
6 -3 -7 0.7 1.3
-6 3 7 3.2 3
5 -3 -7 0.6 1.3
-5 3 7 -0.5 2
4 -3 -7 1.7 1.7
4 -3 -7 -1.3 1.6
4 -3 -7 2.6 1.2
-4 3 7 0.5 1.8
3 -3 -7 9.6 2.4
3 -3 -7 15.3 2.2
3 -3 -7 16.2 2.7
3 -3 -7 14.4 2.4
-3 3 7 21.4 3.7
2 -3 -7 15.8 2.9
2 -3 -7 15.1 2.5
2 -3 -7 15.5 2.1
-2 3 7 15.2 2.9
1 -3 -7 33.8 4.2
1 -3 -7 36 3.5
1 -3 -7 38.8 2.3
-1 3 7 33.2 3.8
-1 3 7 31.7 3.3
-1 3 7 36.5 3.3
0 -3 -7 252.87 10.8
0 -3 -7 224.38 9.7
0 -3 -7 225.18 9.2
0 3 7 229.58 9.6
-1 -3 -7 111.69 6.7
-1 -3 -7 106.59 6.1
-1 -3 -7 122.89 7
1 3 7 108.09 6.7
1 3 7 107.79 7.2
-2 -3 -7 15.3 3.4
-2 -3 -7 12.5 3.1
-2 -3 -7 9.1 2.2
2 3 7 7.3 2.2
2 3 7 6.6 3.5
2 3 7 12.8 3.2
-3 -3 -7 -0.3 1.3
-3 -3 -7 1.7 1.9
-3 -3 -7 -0.2 2
3 3 7 -1.2 1.9
3 3 7 0.9 1.9
3 3 7 -3.2 2.4
-4 -3 -7 4.1 2.7
-4 -3 -7 1.3 1.9
-4 -3 -7 3.4 2.5
4 3 7 2.4 2.7
4 3 7 1.5 2.1
-5 -3 -7 31.7 5.2
5 3 7 26.4 5.1
-6 4 7 -2.1 2.4
5 -4 -7 -1.8 2.4
5 -4 -7 -0.2 1.3
5 -4 -7 1.7 1.5
-5 4 7 2.8 2.6
4 -4 -7 3.7 2.3
4 -4 -7 0.4 1.5
4 -4 -7 2.3 1.8
4 -4 -7 -0.1 1.2
4 -4 -7 3.1 2.4
-4 4 7 0.8 1.9
3 -4 -7 72.99 4.7
3 -4 -7 75.29 5.2
3 -4 -7 78.89 5
-3 4 7 74.19 6.2
2 -4 -7 106.29 6
2 -4 -7 105.59 5
2 -4 -7 109.69 6
-2 4 7 107.69 4.6
-2 4 7 108.09 4.6
-2 4 7 111.39 7.1
1 -4 -7 2.6 1.9
1 -4 -7 3.9 1.6
1 -4 -7 2 1
1 -4 -7 1.8 2.7
-1 4 7 3.5 2.3
-1 4 7 4.5 2.1
-1 4 7 2.3 1.8
0 -4 -7 6.7 2.6
0 -4 -7 4.6 2.7
0 -4 -7 6.9 1.8
0 -4 -7 9.2 1.1
0 4 7 9 3
0 4 7 10.1 2.6
-1 -4 -7 15.9 2.5
-1 -4 -7 26.6 4.3
-1 -4 -7 29.5 4.2
1 4 7 22.6 4.5
1 4 7 17.6 2.9
1 4 7 19.4 3.4
-2 -4 -7 3.7 1.8
-2 -4 -7 6.8 2.9
-2 -4 -7 4.9 2.4
2 4 7 -2.6 3
2 4 7 4.1 2.3
2 4 7 6 2.6
-3 -4 -7 -1.2 1.9
-3 -4 -7 -0.7 2.2
3 4 7 1.3 1.9
3 4 7 4.6 2.9
-4 -4 -7 -1.1 2.1
-4 -4 -7 7.4 2.9
4 4 7 -3.1 2.2
4 4 7 0.4 4.8
-5 -4 -7 1.4 4.2
5 4 7 2.8 2.7
5 4 7 2.4 2.9
6 -5 -7 -1.2 2.2
6 -5 -7 -0.4 1.3
-6 5 7 -0.2 2.7
5 -5 -7 -2 1.3
5 -5 -7 -2.3 3.2
5 -5 -7 1.2 1.3
5 -5 -7 0.4 1.7
-5 5 7 1.5 2.2
4 -5 -7 1.1 1.8
4 -5 -7 -1 1.3
4 -5 -7 2.3 2.8
4 -5 -7 -2 1.6
-4 5 7 0 1.9
3 -5 -7 10 2
3 -5 -7 10.8 2.3
3 -5 -7 11.3 2.5
-3 5 7 9 3.3
2 -5 -7 3.3 1.6
2 -5 -7 5.9 2.3
2 -5 -7 5.9 1.5
2 -5 -7 -1.1 2.7
-2 5 7 3.5 1.6
-2 5 7 4.8 2
-2 5 7 4.8 2.5
1 -5 -7 12.2 1.7
1 -5 -7 10.5 2.3
1 -5 -7 15.5 3.9
1 -5 -7 15.7 3.3
-1 5 7 12.7 3
-1 5 7 10.1 2.5
0 -5 -7 7.8 1.9
0 -5 -7 13.5 3.2
0 -5 -7 7 3.4
0 5 7 11.9 3
0 5 7 13 3.9
-1 -5 -7 0.5 2.6
-1 -5 -7 -2 2.3
-1 -5 -7 -1.4 1.1
1 5 7 -2.4 3
1 5 7 0.4 2
1 5 7 -0.3 1.9
-2 -5 -7 2.5 2.5
-2 -5 -7 6.2 2.4
2 5 7 0.2 3.1
2 5 7 0.3 2.2
2 5 7 -0.7 2
-3 -5 -7 0.7 2.5
3 5 7 1.8 2.5
3 5 7 -0.2 2
-4 -5 -7 6.6 2.6
4 5 7 9.2 3.5
4 5 7 3.8 2.6
5 -6 -7 -5.1 3.4
5 -6 -7 -0.8 1.5
5 -6 -7 3 2.3
-5 6 7 1.5 2.4
4 -6 -7 -1 3.5
4 -6 -7 0.3 1.5
4 -6 -7 3.9 2.2
-4 6 7 5.3 3.1
3 -6 -7 5.7 3.7
3 -6 -7 0.4 1.6
3 -6 -7 -0.9 1.9
3 -6 -7 6.1 2.5
-3 6 7 -0.6 2.1
2 -6 -7 5 2.4
2 -6 -7 -0.7 1.3
2 -6 -7 0.3 1.3
2 -6 -7 -1.7 2.7
-2 6 7 -0.3 1.5
-2 6 7 1.1 2.5
-2 6 7 3.4 2
1 -6 -7 52.29 4.8
1 -6 -7 68.79 9.4
-1 6 7 54.39 5
-1 6 7 41.5 5.1
0 -6 -7 41.7 4.9
0 -6 -7 23.1 3.6
0 6 7 34 5.3
0 6 7 34.2 4.8
-1 -6 -7 5.7 3
-1 -6 -7 5.3 2.1
1 6 7 0.7 1.9
1 6 7 0 3.7
1 6 7 5.8 2.9
-2 -6 -7 1 2.6
2 6 7 3 2.7
2 6 7 1.1 2.3
-3 -6 -7 -0.7 2.4
3 6 7 0.1 2.3
3 6 7 1.1 2.8
4 6 7 18.5 4.9
4 6 7 9.4 3.5
4 -7 -7 2.2 3.6
4 -7 -7 -2.2 1.5
4 -7 -7 -1.2 4.1
-4 7 7 2.3 2.8
3 -7 -7 -2.3 2.6
3 -7 -7 -2.8 1.4
3 -7 -7 -3.7 3.9
3 -7 -7 0 1.9
-3 7 7 -0.6 2.3
2 -7 -7 0.4 3.4
2 -7 -7 -1.8 1.5
2 -7 -7 6.3 4.3
2 -7 -7 2.5 1.7
-2 7 7 -0.8 3
-2 7 7 -0.1 2.4
-2 7 7 0.6 1.9
1 -7 -7 7.5 2.3
1 -7 -7 6.3 3.9
-1 7 7 10.2 2.8
-1 7 7 7.6 3.3
0 -7 -7 -2 2.9
0 7 7 -1.9 3.1
0 7 7 -0.9 2.1
-1 -7 -7 -1.7 2.6
1 7 7 -1 2.4
1 7 7 2.3 2.7
-2 -7 -7 1.8 3.2
-2 -7 -7 2.3 1
2 7 7 0.6 2.6
2 7 7 7.6 3.5
-3 -7 -7 -0.6 0.9
-3 -7 -7 -1.1 2.6
3 7 7 -2.7 2.5
3 7 7 1.9 3.3
3 -8 -7 2.8 4.4
3 -8 -7 -4.1 2.2
-3 8 7 1.5 2.7
2 -8 -7 0.9 3.9
2 -8 -7 12.9 2.6
2 -8 -7 6.1 2.5
-2 8 7 14.2 3
-2 8 7 18.2 4.8
-2 8 7 -0.1 3.6
1 -8 -7 2.2 3.5
-1 8 7 0.4 4.2
-1 8 7 3.3 2.6
0 -8 -7 -2.2 3.3
0 8 7 0.4 4.6
-1 -8 -7 2.1 3.4
1 8 7 9.4 3.8
1 8 7 3.3 2.9
-2 -8 -7 2 1.1
2 8 7 1 2.8
2 8 7 -1.8 3
-2 9 7 1.4 4.1
-2 9 7 4.6 2.9
-1 9 7 -1.6 2.7
0 9 7 3.5 3
2 9 -8 3.3 4.2
2 9 -8 0.9 2.9
-2 -9 8 3.5 1.5
1 9 -8 17.6 3.7
1 9 -8 19.1 4.9
-1 -9 8 9.1 4.4
0 9 -8 92.19 7.5
0 9 -8 116.29 9.9
-1 9 -8 5.2 4
-1 9 -8 -0.4 1.9
1 -9 8 2.1 4.4
-2 9 -8 -0.8 1.7
-2 9 -8 3 3
3 8 -8 5.2 3.3
3 8 -8 1.1 2.7
-3 -8 8 3.3 1.5
2 8 -8 -1 1.8
2 8 -8 0.5 2.9
-2 -8 8 2.3 3.1
-2 -8 8 1.8 1.2
1 8 -8 3.2 3
1 8 -8 2.3 2.1
-1 -8 8 4.1 3.6
0 8 -8 4.4 3.4
0 8 -8 1.3 1.8
0 -8 8 1.2 3.2
-1 8 -8 2.7 1.8
-1 8 -8 3.3 3.2
1 -8 8 -4.1 3.1
-2 8 -8 1.9 3
-2 8 -8 -0.5 1.4
2 -8 8 1.6 4.1
-3 8 -8 -2.6 2.6
3 -8 8 5.2 4.2
4 7 -8 0.9 2.5
4 7 -8 2.2 2.8
-4 -7 8 -1 1.5
-4 -7 8 -1.2 2.3
-4 -7 8 -0.5 2.4
-4 -7 8 -2.5 2.9
3 7 -8 4 2.9
3 7 -8 1.5 2.2
-3 -7 8 8.1 1.8
-3 -7 8 5.4 3.2
2 7 -8 23.6 4.8
2 7 -8 18 3.5
-2 -7 8 18.3 2.3
-2 -7 8 22.9 4.7
-2 -7 8 19.6 4
1 7 -8 647.64 22.6
1 7 -8 641.84 24
-1 -7 8 640.94 24.3
0 7 -8 16.1 4.2
0 7 -8 16.4 2.8
0 -7 8 8.7 4
-1 7 -8 0.1 1.4
-1 7 -8 -0.9 2.3
1 -7 8 -0.8 3.3
-2 7 -8 -0.7 1.2
-2 7 -8 0.9 2.6
2 -7 8 -1.6 4.4
-3 7 -8 3.1 2.9
3 -7 8 1.8 3.6
-4 7 -8 3.7 2
-4 7 -8 2.3 3.8
-4 7 -8 -1.2 3
4 -7 8 3.4 5.2
5 6 -8 1.5 2.5
5 6 -8 3 3.3
-5 -6 8 -1.1 1.8
4 6 -8 16.6 3.9
4 6 -8 8.9 2.9
-4 -6 8 10.6 2.7
-4 -6 8 12.4 2.9
-4 -6 8 9.9 2.2
-4 -6 8 4 2.5
3 6 -8 3.6 2.3
3 6 -8 5 2.7
-3 -6 8 4.2 2.7
-3 -6 8 1.9 1.3
2 6 -8 18.1 4.9
2 6 -8 13.3 3
2 6 -8 18.9 3.9
-2 -6 8 18.4 3.4
-2 -6 8 15.6 2.1
-2 -6 8 26.6 4.8
1 6 -8 10.4 3.3
1 6 -8 17.9 4.3
1 6 -8 8.8 2.4
-1 -6 8 13 3.3
-1 -6 8 17.4 4.2
0 6 -8 105.79 6.1
0 6 -8 108.29 7.9
0 -6 8 92.99 7.6
-1 6 -8 -0.6 2
-1 6 -8 1.3 2.7
-1 6 -8 0.2 1.2
1 -6 8 -0.3 2.7
-2 6 -8 0 2.8
-2 6 -8 6.7 3
-2 6 -8 5.6 1.4
2 -6 8 -0.3 2.8
-3 6 -8 22.3 4.4
-3 6 -8 29.1 4.7
-3 6 -8 22.8 3.4
3 -6 8 19.4 5.1
-4 6 -8 9.5 2.2
-4 6 -8 8.9 3.3
4 -6 8 5.2 4.2
-5 6 -8 8.8 2.9
-5 6 -8 6 3.7
5 5 -8 1 2.6
5 5 -8 -0.3 2.3
-5 -5 8 -0.6 1.5
-5 -5 8 0.4 2.1
4 5 -8 3.3 2.4
4 5 -8 7.4 2.9
4 5 -8 -0.9 3.6
-4 -5 8 4.9 1.6
-4 -5 8 3.9 2.3
3 5 -8 56.99 8.9
3 5 -8 55.79 5.5
3 5 -8 58.79 5.7
-3 -5 8 52.59 3.7
-3 -5 8 57.89 5.1
-3 -5 8 51.59 4.7
-3 -5 8 49.99 5
2 5 -8 76.29 6.2
2 5 -8 76.99 6.9
2 5 -8 82.79 6.7
-2 -5 8 75.19 3.8
-2 -5 8 83.59 6.4
1 5 -8 409.66 14.8
1 5 -8 377.06 15.5
1 5 -8 399.06 15.7
-1 -5 8 396.96 15.6
-1 -5 8 380.56 15
0 5 -8 130.39 7.9
0 5 -8 129.69 6.7
0 5 -8 114.69 7.5
0 -5 8 123.19 8.4
0 -5 8 123.99 7.5
-1 5 -8 8 1.8
-1 5 -8 8.8 3
-1 5 -8 6.9 3.2
1 -5 8 2.7 3
-2 5 -8 0.3 2.7
-2 5 -8 -0.1 2
-2 5 -8 -1 0.9
2 -5 8 0.6 2.8
-3 5 -8 7.8 2.9
-3 5 -8 6 2.8
-3 5 -8 2.4 0.9
-3 5 -8 3.7 0.9
-3 5 -8 3.3 1.6
3 -5 8 4.5 3.7
3 -5 8 2 3.5
-4 5 -8 -1.3 1.1
-4 5 -8 1.4 2.3
-4 5 -8 1.6 2.7
4 -5 8 0.5 3.3
-5 5 -8 7.4 2.7
-5 5 -8 5.2 3
-5 5 -8 1.3 1.7
5 -5 8 -1.2 3.4
6 4 -8 2.9 3.3
-6 -4 8 5.4 2.5
5 4 -8 6.8 2.8
5 4 -8 12.9 4.5
5 4 -8 6.6 2.5
-5 -4 8 2.1 2.1
-5 -4 8 6.2 2
4 4 -8 0.3 1.6
4 4 -8 -0.2 1.9
-4 -4 8 1.7 1.3
-4 -4 8 -0.2 1.5
3 4 -8 75.39 5.9
3 4 -8 61.29 5.9
3 4 -8 73.29 6.3
-3 -4 8 67.39 4.5
-3 -4 8 76.19 4.3
-3 -4 8 75.19 4.8
-3 -4 8 75.49 5.6
2 4 -8 5.6 2.1
2 4 -8 5.4 2.4
2 4 -8 11 3.4
-2 -4 8 6.6 1.3
-2 -4 8 8.3 2.9
-2 -4 8 8.1 2.7
1 4 -8 88.99 6.2
1 4 -8 91.99 5.7
1 4 -8 82.29 6.2
-1 -4 8 94.99 6.1
-1 -4 8 96.39 6.3
0 4 -8 63.99 4.4
0 4 -8 63.99 5.4
0 4 -8 65.59 5.3
0 -4 8 60.99 5.4
0 -4 8 63.59 5.7
-1 4 -8 0.3 2.4
-1 4 -8 3 2.2
-1 4 -8 0 1.2
1 -4 8 -0.4 2.4
1 -4 8 1.1 2.4
-2 4 -8 1.8 2.3
-2 4 -8 1.6 1.1
-2 4 -8 0.1 2.1
2 -4 8 -0.3 2.5
2 -4 8 1.9 2.9
-3 4 -8 -0.8 0.8
-3 4 -8 -1 0.8
-3 4 -8 0.4 1.8
-3 4 -8 0.8 0.9
-3 4 -8 -3.1 2.1
-3 4 -8 0.1 1
3 -4 8 2.1 2.9
3 -4 8 1.1 2.9
-4 4 -8 5.7 1.6
-4 4 -8 5.5 2.5
-4 4 -8 5.4 2.8
4 -4 8 7.5 3.5
-5 4 -8 19.8 3.8
-5 4 -8 11.3 2.5
5 -4 8 4.3 3.7
6 3 -8 6.9 2.8
6 3 -8 7.4 2.2
-6 -3 8 -0.1 2.1
-6 -3 8 0 1.8
5 3 -8 13.8 3.1
5 3 -8 17.4 4.1
5 3 -8 16.5 3.5
-5 -3 8 11.7 2.8
-5 -3 8 14 2.7
4 3 -8 -1.6 1.6
4 3 -8 -0.6 1.6
4 3 -8 1 2.7
-4 -3 8 -0.7 1.4
-4 -3 8 0.8 1.1
3 3 -8 288.77 12.2
3 3 -8 269.67 12.4
3 3 -8 303.57 12
-3 -3 8 289.77 11.6
2 3 -8 117.99 6.7
2 3 -8 125.39 8.5
2 3 -8 113.69 6.7
-2 -3 8 118.39 6
-2 -3 8 126.09 4.9
-2 -3 8 120.79 5.9
1 3 -8 35.3 3.6
1 3 -8 35.2 4.3
1 3 -8 38.8 4.3
-1 -3 8 42.6 4.2
-1 -3 8 38.8 3.8
0 3 -8 156.88 7.7
0 3 -8 143.29 7.6
0 3 -8 152.98 6.7
0 -3 8 150.38 7.5
0 -3 8 151.08 7.8
-1 3 -8 161.88 8.2
-1 3 -8 154.48 8
1 -3 8 166.78 8.5
1 -3 8 154.78 8.1
-2 3 -8 4.4 2.3
-2 3 -8 1.7 2.3
-2 3 -8 6 1.1
2 -3 8 8.1 2.7
2 -3 8 8.3 3.1
-3 3 -8 2.8 2.2
-3 3 -8 1.2 1
-3 3 -8 1.8 1
-3 3 -8 3 2.1
3 -3 8 6.3 2.9
3 -3 8 2.3 2.7
-4 3 -8 0 1
-4 3 -8 2.7 2.2
-4 3 -8 0 1.8
-4 3 -8 -0.7 0.8
4 -3 8 0 2.9
4 -3 8 -3.1 2.6
-5 3 -8 22.4 3.7
-5 3 -8 21 3.8
-5 3 -8 13.1 2.6
5 -3 8 26.9 5.4
-6 3 -8 3.7 2.5
-6 3 -8 -0.6 1.7
6 2 -8 -4 3.2
6 2 -8 0.4 1.7
6 2 -8 4.2 1.8
-6 -2 8 1.7 1.7
-6 -2 8 -0.7 1.7
5 2 -8 2.1 1.7
5 2 -8 -1.5 1.4
5 2 -8 2.7 2.6
-5 -2 8 -0.6 1.6
-5 -2 8 -0.5 1.2
4 2 -8 -0.2 2.4
4 2 -8 -0.6 1.5
4 2 -8 1.5 1.6
-4 -2 8 1.3 1.6
-4 -2 8 1.3 1.2
3 2 -8 218.18 9.1
3 2 -8 211.08 10.2
3 2 -8 215.08 9.8
3 2 -8 216.98 8.8
-3 -2 8 213.48 9.3
-3 -2 8 241.58 9.8
2 2 -8 23.4 3.2
2 2 -8 28.1 3.1
2 2 -8 32.1 3.7
2 2 -8 27.7 2.3
2 2 -8 30.5 3.3
-2 -2 8 29.2 2.3
-2 -2 8 27.7 3.2
-2 -2 8 28.4 2.7
-2 -2 8 28.6 2.7
1 2 -8 428.26 12
1 2 -8 425.56 14.3
1 2 -8 361.76 15.4
1 2 -8 409.66 14
-1 -2 8 403.36 13.8
-1 -2 8 406.06 13.8
0 2 -8 8.6 2.5
0 2 -8 5.2 2
0 2 -8 5.3 1.3
0 -2 8 5.2 2
0 -2 8 8.1 2.4
-1 2 -8 28.5 3.9
-1 2 -8 35.5 3.7
-1 2 -8 30.5 1.7
1 -2 8 32.5 4
1 -2 8 30.7 3.8
-2 2 -8 120.49 7
-2 2 -8 115.49 5
-2 2 -8 120.79 5.5
-2 2 -8 120.79 7
2 -2 8 119.19 7.2
2 -2 8 124.49 7.4
-3 2 -8 1.1 1.9
-3 2 -8 1.5 1.1
-3 2 -8 -0.2 1.9
-3 2 -8 -0.4 1.2
3 -2 8 1.9 2.6
3 -2 8 1.1 2.6
-4 2 -8 0.2 1
-4 2 -8 0.2 1.1
-4 2 -8 -0.9 1.9
-4 2 -8 4.9 2.1
4 -2 8 -1.6 2.8
4 -2 8 3.9 3
4 -2 8 -0.4 1.5
-5 2 -8 32.7 5
-5 2 -8 27.1 3.6
-5 2 -8 33.3 4.5
-5 2 -8 29.6 2.9
5 -2 8 38.4 6
5 -2 8 30.7 4.6
-6 2 -8 7.8 4.3
-6 2 -8 0.8 1.6
-6 2 -8 5.9 2.2
6 -2 8 7 3.8
6 1 -8 -0.1 2.6
6 1 -8 0.3 1.5
6 1 -8 4.5 2.3
-6 -1 8 -0.7 1.7
-6 -1 8 1.9 2
5 1 -8 11.3 2.1
5 1 -8 8.7 2.4
-5 -1 8 8.4 2.3
-5 -1 8 6.2 2.1
4 1 -8 173.98 7.5
4 1 -8 193.88 9.2
4 1 -8 183.78 8.3
4 1 -8 191.18 7.3
-4 -1 8 178.08 8.5
-4 -1 8 196.38 8.6
3 1 -8 20.3 3.1
3 1 -8 17.4 2.4
3 1 -8 17.8 2.4
3 1 -8 18.2 2.8
3 1 -8 16.7 2.5
-3 -1 8 19.5 2.5
-3 -1 8 13.2 2.3
2 1 -8 201.98 7.3
2 1 -8 187.38 7.7
2 1 -8 196.98 7.8
2 1 -8 196.78 8.7
-2 -1 8 186.78 9.2
1 1 -8 453.05 15.1
1 1 -8 463.95 15.1
1 1 -8 461.95 13.7
1 1 -8 451.95 15.1
-1 -1 8 447.96 14.7
-1 -1 8 452.65 14.6
0 1 -8 331.37 12.4
0 1 -8 316.67 10.4
0 1 -8 323.97 11.9
0 -1 8 322.97 11.7
0 -1 8 305.27 11.7
-1 1 -8 366.86 14.3
-1 1 -8 482.05 18.9
1 -1 8 431.56 17.4
1 -1 8 379.06 14.6
-2 1 -8 59.69 5
-2 1 -8 64.69 5.4
-2 1 -8 62.69 4.1
2 -1 8 63.39 5.4
2 -1 8 68.49 5.4
-3 1 -8 79.19 5.9
-3 1 -8 71.49 4.5
-3 1 -8 76.89 5
3 -1 8 76.89 6.3
3 -1 8 77.39 6.7
-4 1 -8 2.7 2.1
-4 1 -8 1.9 2.2
-4 1 -8 0.7 1.3
-4 1 -8 1.2 1.3
4 -1 8 -1.3 2.4
4 -1 8 0.3 3.1
4 -1 8 -0.7 1.2
-5 1 -8 2.2 1.5
-5 1 -8 1.8 2.1
-5 1 -8 1.9 1.5
-5 1 -8 4.7 2.5
5 -1 8 1 1.8
5 -1 8 -0.7 3.1
-6 1 -8 -0.9 2.6
-6 1 -8 -0.6 2
-6 1 -8 0.5 1.8
-6 1 -8 -2.7 2
6 -1 8 -4.7 3.1
6 0 -8 -1.6 1.7
-6 0 8 0.2 2
-6 0 8 2.1 2.1
5 0 -8 0.3 1.7
5 0 -8 -0.4 1.8
-5 0 8 0.9 1.6
-5 0 8 -0.8 1.3
4 0 -8 26.2 3.7
4 0 -8 31.2 3.4
4 0 -8 30.6 4.3
-4 0 8 18.4 3
-4 0 8 29.8 3.4
3 0 -8 35.5 3.9
3 0 -8 36.3 2.9
3 0 -8 41.9 3.3
3 0 -8 37.6 2.9
-3 0 8 36 3.4
2 0 -8 129.59 5.6
2 0 -8 129.29 5.7
2 0 -8 130.49 6.7
2 0 -8 125.99 5.6
-2 0 8 124.89 5.6
-2 0 8 137.59 8.3
1 0 -8 951.3 28.2
1 0 -8 931.51 28.2
1 0 -8 916.71 28.1
-1 0 8 934.41 27.6
-1 0 8 973.8 27.2
-1 0 8 964 28.4
-1 0 8 961.4 27.7
0 0 -8 217.48 8.9
0 0 -8 212.48 7.5
0 0 -8 214.58 8.7
0 0 8 203.18 7.5
0 0 8 216.08 8.8
0 0 8 216.08 8.6
-1 0 -8 46.2 6.4
-1 0 -8 46.9 4.2
1 0 8 38.8 4.1
-2 0 -8 4.7 2.2
-2 0 -8 8.5 2.6
-2 0 -8 5 1.4
2 0 8 7.1 2.7
2 0 8 6.7 2.4
-3 0 -8 118.39 7.2
-3 0 -8 127.49 7.5
-3 0 -8 124.19 6.3
3 0 8 132.69 5.4
3 0 8 120.79 7.8
3 0 8 135.09 8.3
-4 0 -8 74.39 5.1
-4 0 -8 85.49 6.4
-4 0 -8 83.29 5.4
-4 0 -8 78.89 6.1
4 0 8 86.29 7.1
4 0 8 82.19 4.6
4 0 8 66.89 7.2
-5 0 -8 1 2.2
-5 0 -8 0.5 2.1
-5 0 -8 1.7 1.7
5 0 8 1.2 1.7
5 0 8 3.9 3.2
-6 0 -8 5.1 2.3
-6 0 -8 -1.8 2.1
-6 0 -8 3.6 2.4
-6 0 -8 1.8 2.8
6 0 8 4.7 3.7
6 -1 -8 4.9 2
5 -1 -8 16 2.8
-5 1 8 15.5 2.9
4 -1 -8 0.1 1.1
4 -1 -8 -0.7 1.7
4 -1 -8 3.2 2
4 -1 -8 -0.2 1.5
-4 1 8 -2.6 1.3
-4 1 8 -0.9 1.4
3 -1 -8 4.2 1.5
3 -1 -8 4.2 1.8
3 -1 -8 2.6 1.8
3 -1 -8 3.1 1.4
3 -1 -8 2.8 1.2
-3 1 8 1.9 1.4
-3 1 8 0.9 1.8
2 -1 -8 592.64 18.2
2 -1 -8 620.94 18.5
2 -1 -8 601.24 18.8
2 -1 -8 580.54 18.1
2 -1 -8 569.64 19.8
-2 1 8 602.84 18.2
-2 1 8 604.44 20.2
1 -1 -8 531.85 17
1 -1 -8 524.85 16.8
1 -1 -8 516.85 17
-1 1 8 507.75 15.5
-1 1 8 538.95 16.5
-1 1 8 528.65 17.2
-1 1 8 514.25 16.2
0 -1 -8 95.09 5.5
0 1 8 83.29 4.3
0 1 8 92.19 5.2
0 1 8 91.89 3.2
-1 -1 -8 -1.6 1.4
-1 -1 -8 1.1 1.3
-1 -1 -8 -0.6 1.6
1 1 8 0.7 1
1 1 8 0.9 1.7
1 1 8 -0.4 2
-2 -1 -8 100.59 6.4
-2 -1 -8 112.29 6.7
-2 -1 -8 101.69 5.7
2 1 8 102.79 3.7
2 1 8 98.89 6.6
2 1 8 90.89 6.7
-3 -1 -8 84.69 5.4
-3 -1 -8 92.29 6.4
-3 -1 -8 90.09 6.3
3 1 8 80.89 6.8
3 1 8 89.39 4
3 1 8 93.39 7
-4 -1 -8 165.38 8.4
-4 -1 -8 176.78 9.3
-4 -1 -8 170.88 9.5
4 1 8 168.48 6.7
4 1 8 176.08 10.2
4 1 8 178.98 10.8
4 1 8 183.78 7.1
-5 -1 -8 31.7 4.9
-5 -1 -8 18 3.1
-5 -1 -8 17.8 3
5 1 8 21.3 3
5 1 8 26.3 7.4
-6 -1 -8 -0.9 1.7
-6 -1 -8 2.2 2.7
-6 -1 -8 2.9 3.2
6 1 8 6.6 5.2
6 -2 -8 -1.9 1.5
5 -2 -8 8 2
-5 2 8 6.3 2.8
4 -2 -8 -0.8 1.1
4 -2 -8 -2.1 1.7
4 -2 -8 0.5 1.4
-4 2 8 2 2.1
3 -2 -8 3.9 1.9
3 -2 -8 8.1 2.7
3 -2 -8 10.6 1.9
3 -2 -8 7.1 1.6
3 -2 -8 6.2 1.9
-3 2 8 4.9 2.1
-3 2 8 4.7 1.7
2 -2 -8 907.11 27.1
2 -2 -8 925.11 26.5
2 -2 -8 892.81 26.8
2 -2 -8 901.91 27.5
-2 2 8 887.51 26.4
-2 2 8 909.21 28.8
1 -2 -8 235.08 7.8
1 -2 -8 248.08 9.8
1 -2 -8 236.58 9.3
-1 2 8 243.78 9
-1 2 8 244.78 9.8
-1 2 8 236.58 8.7
0 -2 -8 338.37 13.2
0 -2 -8 318.87 11.7
0 -2 -8 303.67 11.9
0 2 8 317.87 12.3
0 2 8 323.17 11.9
0 2 8 313.37 11.4
-1 -2 -8 101.69 6.5
-1 -2 -8 100.99 6.2
-1 -2 -8 98.09 5.7
1 2 8 106.99 6.4
1 2 8 87.79 6.5
-2 -2 -8 -1.4 1.1
-2 -2 -8 -0.6 2.1
-2 -2 -8 -0.9 1.7
2 2 8 0.9 2.1
2 2 8 1.1 2.8
-3 -2 -8 -0.9 1.9
-3 -2 -8 2.3 2.2
-3 -2 -8 -1.7 1.1
3 2 8 -8 4.8
3 2 8 0.4 2.1
3 2 8 -1.6 1.7
-4 -2 -8 -0.5 2
-4 -2 -8 -2.7 1.2
-4 -2 -8 0.1 2.1
4 2 8 -1.1 2.4
4 2 8 1.2 2
-5 -2 -8 1.4 2.6
-5 -2 -8 3.3 2.8
5 2 8 -1.3 2
5 2 8 4.9 1.6
5 2 8 -1 2.5
6 -3 -8 0.4 1.5
-6 3 8 -1 2.2
5 -3 -8 3.2 1.7
-5 3 8 1.7 3.4
4 -3 -8 0.9 1.7
4 -3 -8 2 2.4
4 -3 -8 1.3 1.6
4 -3 -8 0.4 1.2
-4 3 8 3 2.4
3 -3 -8 18.4 2.6
3 -3 -8 17.2 2.8
3 -3 -8 10.3 2
3 -3 -8 15.1 2.9
-3 3 8 19 3.8
2 -3 -8 140.59 6
2 -3 -8 124.89 6.8
2 -3 -8 121.79 6.2
-2 3 8 129.19 7.5
1 -3 -8 244.98 10
1 -3 -8 252.47 10.6
1 -3 -8 260.07 8.2
1 -3 -8 239.08 9.9
-1 3 8 254.57 10.6
-1 3 8 243.38 9.3
-1 3 8 238.78 9.5
0 -3 -8 208.38 9.4
0 -3 -8 205.98 9
0 -3 -8 221.58 10
0 3 8 213.08 9.3
0 3 8 215.58 9.8
-1 -3 -8 51.59 5.3
-1 -3 -8 56.89 4.6
-1 -3 -8 56.19 5.2
1 3 8 44.6 5.5
1 3 8 63.79 5.3
-2 -3 -8 1 1.8
-2 -3 -8 -1.3 1.9
-2 -3 -8 0.3 1.4
2 3 8 0 2.2
2 3 8 -2.7 2.7
2 3 8 -1.4 1.4
-3 -3 -8 51.09 4.9
-3 -3 -8 58.49 6
-3 -3 -8 56.59 7
3 3 8 60.09 6.3
3 3 8 58.49 5.7
-4 -3 -8 0 2.2
-4 -3 -8 -2.4 2.6
4 3 8 0.3 2.6
4 3 8 3.6 2.2
-5 -3 -8 6.4 3.1
5 3 8 7 3.4
5 3 8 11.8 3.4
-6 4 8 -0.5 2.5
5 -4 -8 -1.2 1.3
5 -4 -8 -2.3 1.3
5 -4 -8 -0.7 2.3
-5 4 8 -0.3 1.9
4 -4 -8 1.4 1.6
4 -4 -8 -4.5 1.6
4 -4 -8 0.2 2.7
-4 4 8 1.3 2.2
3 -4 -8 3.2 2.6
3 -4 -8 7.3 1.9
3 -4 -8 2.5 2.6
3 -4 -8 8.2 2.2
3 -4 -8 9 2.2
-3 4 8 7.7 2.8
2 -4 -8 24.9 3.6
2 -4 -8 23.5 3.6
2 -4 -8 26.6 2.7
2 -4 -8 13 4.2
-2 4 8 24.4 2.4
-2 4 8 25.3 4.2
-2 4 8 21.2 2.6
1 -4 -8 8 2.6
1 -4 -8 4.4 2.8
1 -4 -8 8.4 2.1
1 -4 -8 12.3 1.6
-1 4 8 8.7 2.9
-1 4 8 10.4 3.1
-1 4 8 9.9 2.4
0 -4 -8 108.19 6.8
0 -4 -8 107.39 6.4
0 -4 -8 100.19 7.1
0 4 8 105.79 6.7
0 4 8 110.39 7.1
-1 -4 -8 53.09 5.9
-1 -4 -8 52.29 4.8
-1 -4 -8 55.49 5.4
1 4 8 49.3 5.9
1 4 8 58.79 5.7
-2 -4 -8 2.6 2.5
-2 -4 -8 4.1 2.7
-2 -4 -8 2 1.3
2 4 8 4.1 2.6
2 4 8 4.1 2.4
2 4 8 -2.2 3.2
-3 -4 -8 0.4 2.5
-3 -4 -8 2.3 2.3
3 4 8 -0.2 2.1
3 4 8 2.4 2.5
-4 -4 -8 0.4 2.5
4 4 8 -1.1 2.5
4 4 8 -0.9 2.2
5 4 8 3.7 3.6
5 4 8 2 2.7
5 -5 -8 1.8 1.5
5 -5 -8 0 1.9
5 -5 -8 -2.6 2.7
-5 5 8 -0.8 2.1
4 -5 -8 -2.7 2.9
4 -5 -8 -0.6 1.4
4 -5 -8 -1 1.7
4 -5 -8 -0.7 1.8
-4 5 8 3.6 3.1
3 -5 -8 11.1 2.3
3 -5 -8 9.9 2.2
3 -5 -8 14.7 2.8
-3 5 8 13.5 3.3
2 -5 -8 12.2 3.7
2 -5 -8 22.4 2.6
2 -5 -8 27.2 4
2 -5 -8 18.5 2.8
-2 5 8 23.6 3.1
-2 5 8 23.2 2.8
-2 5 8 22.9 4
1 -5 -8 52.09 3
1 -5 -8 50.59 6
1 -5 -8 52.19 5.1
1 -5 -8 43.7 4.6
-1 5 8 46.9 4.6
-1 5 8 46.1 4.8
0 -5 -8 14.8 2.6
0 -5 -8 19.2 1.6
0 -5 -8 14.4 3.6
0 -5 -8 28.7 4.4
0 5 8 22 3.8
0 5 8 16.9 4
-1 -5 -8 4.1 2.7
-1 -5 -8 4.7 1.7
1 5 8 7.6 3
1 5 8 7.4 2.4
-2 -5 -8 0.2 2.5
2 5 8 1.5 2.6
2 5 8 1.1 2
-3 -5 -8 11.4 5.5
3 5 8 5.1 2.8
3 5 8 13.3 4
-4 -5 -8 2.3 3.1
4 5 8 10.7 4.2
4 5 8 6.9 3.2
5 -6 -8 4.5 2.3
-5 6 8 -0.5 2.4
4 -6 -8 2.6 3.7
4 -6 -8 -2.6 1.6
4 -6 -8 5.8 2.7
-4 6 8 6.4 3.1
3 -6 -8 10.9 2.5
3 -6 -8 20.5 3
3 -6 -8 17.8 3.3
-3 6 8 20 4.7
2 -6 -8 0.9 3.6
2 -6 -8 -2.5 1.3
2 -6 -8 -2.8 1.2
2 -6 -8 -3.2 2.7
-2 6 8 1 2
-2 6 8 -0.7 1.9
-2 6 8 -1.8 1.9
1 -6 -8 1.2 2.5
1 -6 -8 6.6 2.9
1 -6 -8 3.3 1.9
1 -6 -8 2.8 3.3
-1 6 8 4.1 2.2
-1 6 8 5.1 2.9
0 -6 -8 4.6 2.9
0 -6 -8 -2.1 2.7
0 -6 -8 3.3 1
0 6 8 2.7 3.2
0 6 8 3.3 2.5
-1 -6 -8 -1 2.6
1 6 8 -0.8 2.1
1 6 8 2.2 2.3
-2 -6 -8 0.8 2.9
2 6 8 1.8 3.2
2 6 8 -1.7 2.4
-3 -6 -8 -1.7 2.4
3 6 8 1.6 3
3 6 8 0.5 2.3
4 6 8 2.6 3.3
4 6 8 8 4.2
4 -7 -8 -3.5 4.4
4 -7 -8 -3.3 1.6
-4 7 8 3.4 2.8
3 -7 -8 -0.5 3.9
3 -7 -8 -1.5 2
3 -7 -8 3.2 2.2
-3 7 8 -2.2 2.2
2 -7 -8 5.8 3.6
2 -7 -8 -2.1 1.8
2 -7 -8 4.4 1.8
-2 7 8 -0.3 2.5
-2 7 8 -2.4 2.6
-2 7 8 4.3 2
1 -7 -8 6.8 1.8
1 -7 -8 4.4 3.6
1 -7 -8 2.6 2
-1 7 8 5.9 2.6
-1 7 8 3.1 3.8
0 -7 -8 -2.1 2.7
0 7 8 -0.2 2
-1 -7 -8 5.3 3.2
1 7 8 0.1 2.7
1 7 8 -0.4 2.5
-2 -7 -8 3.8 3.1
2 7 8 -0.1 2.3
2 7 8 0.6 2.9
3 7 8 3.3 2.9
3 7 8 9.2 4
-3 8 8 -0.2 3
2 -8 -8 -7.1 3.5
2 -8 -8 3.6 1.9
-2 8 8 -0.4 3.1
-2 8 8 4.1 2.4
1 -8 -8 -4.4 1.5
1 -8 -8 -4.5 3.3
-1 8 8 -3.9 4.7
-1 8 8 5 2.8
0 -8 -8 -0.8 3.3
0 8 8 0.9 2.7
-1 -8 -8 -5.5 2.9
1 8 8 -1.6 2.4
1 8 8 -4.6 2.6
2 8 8 -1.3 3.2
2 8 8 -2.5 2.4
1 9 -9 23.1 4.4
1 9 -9 29 6
0 9 -9 1.3 3.6
0 9 -9 4.5 2.8
-1 9 -9 0.4 2.3
-1 9 -9 0.2 3.5
3 8 -9 4 3.6
3 8 -9 -0.4 2.4
-3 -8 9 5.7 1.5
2 8 -9 7.4 2.8
2 8 -9 5.5 3.7
-2 -8 9 6.7 3.6
-2 -8 9 4.5 1.4
1 8 -9 1 2.3
1 8 -9 2.7 3.2
-1 -8 9 0.1 3.2
0 8 -9 0.7 1.9
0 8 -9 -2.3 2.9
0 -8 9 -1.4 3.1
-1 8 -9 1.9 3
-1 8 -9 -1.3 1.5
1 -8 9 -1.8 3.4
-2 8 -9 0 3.1
-2 8 -9 -1.7 1.5
2 -8 9 -0.9 3.8
-3 8 -9 4 3.2
4 7 -9 3.9 3.5
4 7 -9 4.2 2.6
-4 -7 9 3.1 1.8
3 7 -9 21.1 4.8
3 7 -9 17 3.5
-3 -7 9 15.7 4.1
-3 -7 9 20.4 2.7
2 7 -9 54.69 7.6
2 7 -9 57.89 9.1
-2 -7 9 66.39 7
-2 -7 9 52.09 3.2
1 7 -9 185.08 9.8
1 7 -9 190.38 11.4
-1 -7 9 165.98 11.1
0 7 -9 50.29 5
0 7 -9 46.6 6.5
-1 7 -9 0.6 1.3
-1 7 -9 2.3 2.7
-2 7 -9 1.9 3
-2 7 -9 -0.7 1.2
2 -7 9 0.5 3.3
-3 7 -9 -1.6 1.9
3 -7 9 1.8 3.8
-4 7 -9 6.5 5.7
-4 7 -9 5.2 2
4 6 -9 14.1 4.2
4 6 -9 8 3.1
-4 -6 9 7.7 2.4
-4 -6 9 4.6 2.4
-4 -6 9 8.3 2
3 6 -9 -0.2 2.1
3 6 -9 2.2 2.1
-3 -6 9 4 2.6
-3 -6 9 4.2 1.4
-3 -6 9 -1.6 2.4
2 6 -9 2.4 2
2 6 -9 2.6 2.6
-2 -6 9 0 0.9
-2 -6 9 3 2.7
1 6 -9 20.2 4.2
1 6 -9 18.6 3
1 6 -9 21.7 4.8
-1 -6 9 18.5 4.6
0 6 -9 3.4 2.8
0 6 -9 1.8 1.6
0 -6 9 5.1 3.2
-1 6 -9 3.1 2.6
-1 6 -9 2.5 2.6
-1 6 -9 3.4 1.4
1 -6 9 3 3.2
-2 6 -9 3.8 2.8
-2 6 -9 -3 2
-2 6 -9 -0.5 1
2 -6 9 -0.2 3
-3 6 -9 6.3 3.1
-3 6 -9 0.4 1.1
-3 6 -9 0.6 1
-3 6 -9 1.1 3.6
3 -6 9 6 5.4
-4 6 -9 101.39 5.6
-4 6 -9 120.79 8.4
-4 6 -9 113.09 8.2
4 -6 9 98.39 9.7
5 5 -9 1.5 2.3
5 5 -9 -0.2 2.3
-5 -5 9 1 2.1
-5 -5 9 -0.1 1.5
4 5 -9 25.9 4.2
4 5 -9 28.1 4.6
4 5 -9 40 6.8
-4 -5 9 22.9 3.9
-4 -5 9 30.1 3.3
3 5 -9 5.4 3.8
3 5 -9 1.2 1.9
3 5 -9 2.7 2.4
-3 -5 9 1 2
-3 -5 9 1.5 1.1
-3 -5 9 2.2 2.3
-3 -5 9 3.5 2.4
2 5 -9 1792.72 57.59
2 5 -9 1789.82 53.89
2 5 -9 1760.52 54.19
-2 -5 9 1919.71 53.79
-2 -5 9 1781.32 53.09
-2 -5 9 1789.02 50.19
1 5 -9 6.1 2.7
1 5 -9 7.9 3.4
1 5 -9 3.8 1.7
-1 -5 9 5.9 3.4
-1 -5 9 7 2.8
0 5 -9 1.1 1.5
0 5 -9 1.6 2.6
0 5 -9 1.5 2.4
0 -5 9 0.6 2.6
0 -5 9 3 3.2
-1 5 -9 25.3 4.2
-1 5 -9 28.9 4.6
-1 5 -9 27.1 3.1
1 -5 9 28.3 6.3
1 -5 9 19.8 4.5
-2 5 -9 3.8 2.6
-2 5 -9 12.4 4.4
-2 5 -9 2.9 1.3
2 -5 9 3.2 2.9
-3 5 -9 -1.8 0.9
-3 5 -9 -0.9 0.9
-3 5 -9 3.2 2.8
-3 5 -9 -1.1 3.6
-3 5 -9 -0.8 1.1
3 -5 9 0.8 3
-4 5 -9 12.4 3.3
-4 5 -9 15.9 4.8
4 -5 9 6.8 4.3
-5 5 -9 13.2 3.9
-5 5 -9 5.1 1.9
-5 5 -9 6.2 3.1
5 -5 9 7 4.4
5 4 -9 6.9 2.8
5 4 -9 3.6 4.2
5 4 -9 9.8 3
-5 -4 9 8.6 2.7
-5 -4 9 12.8 2.5
4 4 -9 -0.9 1.9
4 4 -9 1.4 1.6
4 4 -9 5.9 3.7
-4 -4 9 0.8 1.8
-4 -4 9 2.5 1.5
3 4 -9 3.8 2.5
3 4 -9 6.4 3.3
3 4 -9 0 1.6
-3 -4 9 0.9 1.5
-3 -4 9 3.2 2.3
-3 -4 9 5.6 2.3
-3 -4 9 2.1 1.4
2 4 -9 12.2 3.5
2 4 -9 5.2 2.2
2 4 -9 13.9 3.1
-2 -4 9 15.5 2.9
-2 -4 9 15.3 3.3
-2 -4 9 9.7 1.4
1 4 -9 210.88 10.3
1 4 -9 222.28 10.3
1 4 -9 221.88 9.7
-1 -4 9 228.08 10.4
-1 -4 9 211.38 9.7
0 4 -9 11.1 3.2
0 4 -9 9.1 2.8
0 4 -9 7.3 1.9
0 -4 9 15.7 3.3
0 -4 9 12.2 3.5
-1 4 -9 33 4.5
-1 4 -9 40 5.2
-1 4 -9 31.1 4.1
1 -4 9 34.5 4.9
1 -4 9 38 5
-2 4 -9 185.68 9.7
-2 4 -9 162.88 9.3
-2 4 -9 188.18 7.4
2 -4 9 193.78 10.3
2 -4 9 176.88 10.1
-3 4 -9 98.89 7.1
-3 4 -9 97.99 7.1
-3 4 -9 92.09 4.6
-3 4 -9 84.29 4.5
-3 4 -9 92.09 4.4
3 -4 9 102.09 8
3 -4 9 85.39 7.6
-4 4 -9 12.8 3.6
-4 4 -9 15.8 3.7
-4 4 -9 7.9 1.7
4 -4 9 11.5 4.4
-5 4 -9 1.2 3
-5 4 -9 -1.7 1.3
-5 4 -9 6.1 2.6
5 -4 9 -1.1 3.4
6 3 -9 2.4 2.2
6 3 -9 3.3 2.4
-6 -3 9 -1.3 1.7
-6 -3 9 4.9 2.4
5 3 -9 -0.4 1.8
5 3 -9 -0.8 2.1
5 3 -9 0.5 3.3
-5 -3 9 1 1.9
-5 -3 9 1.7 1.5
4 3 -9 24.5 4.2
4 3 -9 15.8 3.1
4 3 -9 22.9 3.5
-4 -3 9 18.8 3.4
-4 -3 9 20.5 2.9
3 3 -9 397.26 16.5
3 3 -9 438.36 15.9
3 3 -9 418.76 16.3
3 3 -9 420.46 15.4
-3 -3 9 438.26 15.7
-3 -3 9 416.36 15.7
2 3 -9 970.2 29.4
2 3 -9 912.71 28.9
2 3 -9 877.11 29.1
-2 -3 9 909.71 27.9
-2 -3 9 943.91 28
-2 -3 9 940.21 26.7
1 3 -9 220.68 10.2
1 3 -9 226.28 10
1 3 -9 228.68 9.7
-1 -3 9 265.77 12
-1 -3 9 217.48 9.6
0 3 -9 31.9 4.1
0 3 -9 32.2 4.1
0 -3 9 31.3 4.4
0 -3 9 26.5 3.8
-1 3 -9 6.1 2.4
-1 3 -9 8 2.9
1 -3 9 5.2 2.5
1 -3 9 9.2 3.2
-2 3 -9 0.8 2.2
-2 3 -9 -1.1 1.8
-2 3 -9 0.8 0.7
2 -3 9 -1.5 2.1
2 -3 9 -1.2 2
-3 3 -9 1.8 1.2
-3 3 -9 0.9 2.1
-3 3 -9 4.5 1.3
-3 3 -9 3.8 2.3
3 -3 9 6.6 3.3
3 -3 9 0.6 3
-4 3 -9 13 1.9
-4 3 -9 21.4 3.9
-4 3 -9 12.1 2.3
-4 3 -9 14.7 3.6
4 -3 9 16.2 4.5
-5 3 -9 23.7 3.8
-5 3 -9 17.4 3.8
5 -3 9 19.9 5.1
6 2 -9 -0.7 2
6 2 -9 3.2 1.8
-6 -2 9 6.1 2.5
-6 -2 9 1.1 1.9
5 2 -9 -3.4 2.6
5 2 -9 0.1 1.5
5 2 -9 1.6 1.7
-5 -2 9 -0.2 1.4
-5 -2 9 0.3 2
4 2 -9 43 4.5
4 2 -9 40.7 5.1
4 2 -9 53.99 4.3
-4 -2 9 48.8 4.1
-4 -2 9 46.3 4.7
3 2 -9 23.1 3.4
3 2 -9 25 3.8
3 2 -9 16 2.9
3 2 -9 18 3.8
-3 -2 9 16.8 2.5
-3 -2 9 20.4 2.7
2 2 -9 245.48 9.9
2 2 -9 257.77 10.3
2 2 -9 242.28 10.3
2 2 -9 251.47 10.6
2 2 -9 247.98 8.6
-2 -2 9 239.88 8.8
-2 -2 9 245.78 8.9
-2 -2 9 248.48 9.7
1 2 -9 28.7 2.8
1 2 -9 26.5 1.7
1 2 -9 23.4 3.3
1 2 -9 26.3 3.8
-1 -2 9 26.7 3.3
-1 -2 9 27.2 3.5
0 2 -9 0.7 0.8
0 2 -9 -0.6 1.5
0 2 -9 1.1 1.9
0 -2 9 0.8 1.6
0 -2 9 0.3 2
-1 2 -9 30 3.9
-1 2 -9 30.7 4.2
1 -2 9 29.8 4.1
1 -2 9 29.3 4.2
-2 2 -9 32.8 3.7
-2 2 -9 29.8 2.4
-2 2 -9 27.9 4.1
-2 2 -9 28.6 4.2
2 -2 9 32.5 4.9
2 -2 9 30.8 4.6
-3 2 -9 25 2.7
-3 2 -9 28.3 4.3
-3 2 -9 27.4 4.2
3 -2 9 29.3 4.9
3 -2 9 25.7 4.7
-4 2 -9 47.7 5.1
-4 2 -9 46.4 4
-4 2 -9 43.4 5.5
-4 2 -9 44.4 3.5
4 -2 9 45.6 6.3
4 -2 9 46.7 7.1
4 -2 9 39.8 4
-5 2 -9 7.1 3
-5 2 -9 3.3 1.5
-5 2 -9 6.6 2.1
-5 2 -9 8.8 3.3
5 -2 9 13.3 5.4
6 1 -9 6.6 1.9
6 1 -9 1.3 2.9
6 1 -9 -0.4 2.6
-6 -1 9 5.5 2.4
-6 -1 9 1.6 1.8
5 1 -9 -2.4 1.7
5 1 -9 -0.7 2.1
5 1 -9 4.3 1.6
-5 -1 9 -0.2 1.6
-5 -1 9 2.6 1.5
4 1 -9 111.39 7
4 1 -9 104.79 5.7
4 1 -9 97.59 5.9
4 1 -9 104.29 5.2
-4 -1 9 103.39 6
-4 -1 9 96.79 6.2
3 1 -9 560.74 20.2
3 1 -9 570.64 19.5
3 1 -9 552.34 18.2
3 1 -9 560.84 17.9
3 1 -9 578.04 18.2
-3 -1 9 568.54 18.7
2 1 -9 268.57 11
2 1 -9 264.57 10.1
2 1 -9 274.37 9.4
2 1 -9 271.37 10.3
-2 -1 9 272.67 9.9
-2 -1 9 255.47 8.5
1 1 -9 321.27 11.8
1 1 -9 321.87 10.1
1 1 -9 328.77 11.6
1 1 -9 273.97 14.6
-1 -1 9 324.97 11.3
-1 -1 9 318.97 11.3
0 1 -9 27.4 4.4
0 1 -9 31.2 3.6
0 1 -9 26.9 2.2
0 -1 9 27.6 3.6
0 -1 9 19.3 4.2
-1 1 -9 4.3 2.2
-1 1 -9 2 2
1 -1 9 4.6 2.2
1 -1 9 -0.5 2
-2 1 -9 2.1 1.3
-2 1 -9 0.4 2.3
-2 1 -9 0.7 2.1
2 -1 9 0.3 2.5
2 -1 9 1.1 2.2
-3 1 -9 2.4 1.5
-3 1 -9 4.6 2.5
3 -1 9 2.3 2.7
3 -1 9 5.8 3.1
-4 1 -9 31.8 4.7
-4 1 -9 34.7 4.7
-4 1 -9 35.7 3.7
-4 1 -9 34 3.7
4 -1 9 37.8 5.9
4 -1 9 46.2 7
4 -1 9 33.6 3.5
-5 1 -9 5.3 2.2
-5 1 -9 3.7 2.7
-5 1 -9 3.7 3
-5 1 -9 1.1 1.5
5 -1 9 1.8 5
5 -1 9 3.2 1.8
6 0 -9 -1.3 1.7
-6 0 9 -1.7 1.9
-6 0 9 2.5 2.2
5 0 -9 4.8 2.2
-5 0 9 3.2 1.9
4 0 -9 75.39 5.5
4 0 -9 65.89 4.8
4 0 -9 68.49 4
-4 0 9 62.89 4.9
3 0 -9 7 2.4
3 0 -9 5.9 1.7
3 0 -9 4.2 1.5
-3 0 9 4.3 1.5
2 0 -9 183.38 8.7
2 0 -9 200.28 8.7
2 0 -9 188.38 7.8
2 0 -9 197.08 7.9
-2 0 9 187.58 7.5
-2 0 9 190.48 8.7
1 0 -9 54.09 3.7
1 0 -9 54.99 4.2
1 0 -9 56.29 4.3
-1 0 9 54.29 3.1
-1 0 9 52.59 3.8
-1 0 9 50.99 3.7
-1 0 9 55.29 3.8
0 0 -9 5 2
0 0 -9 4.5 2
0 0 9 6.2 1.4
0 0 9 8.3 2.3
0 0 9 5.3 2.1
-1 0 -9 107.99 6.3
-1 0 -9 100.99 6.2
-1 0 -9 104.29 5.5
1 0 9 101.79 6.3
1 0 9 96.99 3.7
-2 0 -9 1 2.2
-2 0 -9 1.8 1.3
-2 0 -9 0.7 2
2 0 9 -0.4 2.1
2 0 9 0.7 2.4
-3 0 -9 17 2.4
-3 0 -9 27.4 4.3
-3 0 -9 23.5 4.1
3 0 9 17.6 4.2
3 0 9 20.5 4.1
3 0 9 20 2.2
-4 0 -9 38.7 4.9
-4 0 -9 38.9 5
-4 0 -9 30.7 3.8
4 0 9 38.3 3.2
4 0 9 29.4 5.1
-5 0 -9 0.4 1.6
-5 0 -9 -2.5 1.6
-5 0 -9 7.7 2.8
-5 0 -9 4.8 2.7
5 0 9 -1.6 2.7
5 0 9 -1.3 1.8
6 -1 -9 -3 1.6
5 -1 -9 56.99 5.3
-5 1 9 71.59 5.7
4 -1 -9 26 3.3
-4 1 9 18.3 3.6
-4 1 9 15.5 2.7
3 -1 -9 0.2 1.5
3 -1 -9 0.6 1.4
3 -1 -9 0.5 1.1
3 -1 -9 0.7 1.5
3 -1 -9 1.6 1.8
-3 1 9 0.9 1.4
-3 1 9 -1.6 1.6
2 -1 -9 1.6 1.6
2 -1 -9 0.2 1
2 -1 -9 -0.7 1.2
2 -1 -9 -0.4 1.5
-2 1 9 -0.1 1.5
-2 1 9 1.3 1.1
1 -1 -9 328.27 12
1 -1 -9 322.37 12.1
-1 1 9 335.27 11.5
-1 1 9 305.77 11
-1 1 9 327.47 12
-1 1 9 314.17 10.2
0 -1 -9 110.59 9.2
0 -1 -9 145.79 7.2
0 1 9 142.59 4.7
0 1 9 145.29 6.9
0 1 9 146.49 6.2
-1 -1 -9 49.4 4.7
-1 -1 -9 54.79 4.2
-1 -1 -9 45.7 4.5
1 1 9 58.29 4.9
1 1 9 49.9 3
1 1 9 49.4 5.1
-2 -1 -9 85.39 6.1
-2 -1 -9 88.39 5.5
-2 -1 -9 86.99 6.5
2 1 9 89.29 3.2
2 1 9 69.89 6.2
2 1 9 91.59 6.6
-3 -1 -9 4.7 2.3
-3 -1 -9 5.2 2
-3 -1 -9 8.4 3
3 1 9 5 2.8
3 1 9 -0.4 3.7
3 1 9 6.4 1.3
-4 -1 -9 1.3 2.9
-4 -1 -9 -1 2.1
-4 -1 -9 -2.8 1.1
4 1 9 2.4 1.3
4 1 9 -2.9 2.4
-5 -1 -9 -0.5 2.7
-5 -1 -9 3.9 2.7
-5 -1 -9 -3.2 1.4
-5 -1 -9 -2.6 1.8
5 1 9 1.5 2.9
6 -2 -9 -1.3 1.7
5 -2 -9 20.8 3.1
-5 2 9 24 5.2
4 -2 -9 2.7 1.7
4 -2 -9 -0.9 1.6
4 -2 -9 3.5 3
-4 2 9 2.5 2.2
3 -2 -9 69.59 4.1
3 -2 -9 65.19 4.5
3 -2 -9 58.29 4.4
3 -2 -9 62.99 4.6
3 -2 -9 64.09 5.4
-3 2 9 69.89 5.8
-3 2 9 64.39 4.4
2 -2 -9 166.88 7.6
2 -2 -9 167.78 7
2 -2 -9 158.28 7.2
-2 2 9 161.98 6.5
-2 2 9 169.48 8.5
1 -2 -9 26.4 3.5
1 -2 -9 42.5 4.4
-1 2 9 32.7 4.2
-1 2 9 30 3.6
-1 2 9 30.6 3.2
0 -2 -9 0.6 1.8
0 -2 -9 0.7 1.2
0 -2 -9 0 1.6
0 2 9 0.1 1.4
0 2 9 0.1 1.7
0 2 9 4.1 2.5
-1 -2 -9 21.5 3.5
-1 -2 -9 26.4 4
-1 -2 -9 15.2 2.4
1 2 9 17.8 3.3
1 2 9 12.9 3.4
-2 -2 -9 107.99 7
-2 -2 -9 107.29 7.5
-2 -2 -9 105.59 6.3
2 2 9 104.89 7.3
-3 -2 -9 167.08 9.4
-3 -2 -9 165.68 9.5
-3 -2 -9 159.68 8.3
3 2 9 170.58 9.8
-4 -2 -9 0.2 1.4
-4 -2 -9 -3 2.1
-4 -2 -9 3.3 2.4
4 2 9 0.6 2.5
-5 -2 -9 1 2.9
5 2 9 4.8 3.3
6 -3 -9 -1.2 1.6
5 -3 -9 0.9 1.5
-5 3 9 3 2.5
4 -3 -9 2.2 1.5
4 -3 -9 0.3 1.3
4 -3 -9 1.2 2.1
4 -3 -9 -1.7 1.7
-4 3 9 2.6 2.2
3 -3 -9 77.59 4.6
3 -3 -9 76.79 4.9
3 -3 -9 78.09 5.4
-3 3 9 80.29 6.4
2 -3 -9 3.7 2.4
2 -3 -9 6.6 2.3
-2 3 9 5.5 2.2
1 -3 -9 72.89 5.2
1 -3 -9 70.29 3.3
1 -3 -9 70.99 5.2
1 -3 -9 74.09 5.8
-1 3 9 72.79 4.8
-1 3 9 75.39 5.5
-1 3 9 64.79 4.8
0 -3 -9 -0.4 1.2
0 -3 -9 -2.1 2.1
0 -3 -9 -0.9 2
0 3 9 0.9 1.9
0 3 9 0.9 2.4
0 3 9 0.7 1.7
-1 -3 -9 55.29 5.2
-1 -3 -9 64.79 5
-1 -3 -9 61.29 5.8
1 3 9 53.19 5.4
-2 -3 -9 53.59 5.5
-2 -3 -9 50.69 5.7
-2 -3 -9 48 4.6
2 3 9 48.8 7.6
2 3 9 50.09 5.5
-3 -3 -9 132.49 8
-3 -3 -9 156.18 9
-3 -3 -9 142.29 8.9
3 3 9 146.39 9.4
4 3 9 41.9 6.3
4 3 9 51.29 5.8
-5 -3 -9 -1.9 2.5
5 3 9 2.2 3.2
6 -4 -9 -0.6 1.7
-6 4 9 -1.7 2.6
5 -4 -9 3.4 1.7
5 -4 -9 -1.9 2.1
-5 4 9 -0.2 2.3
4 -4 -9 2.5 1.8
4 -4 -9 2.3 2.4
4 -4 -9 0.1 2.3
4 -4 -9 0.9 1.7
-4 4 9 3.4 2.5
3 -4 -9 122.29 6.1
3 -4 -9 120.79 6.7
3 -4 -9 117.69 6.2
3 -4 -9 90.99 6.3
3 -4 -9 105.29 8.2
-3 4 9 111.49 7.8
2 -4 -9 26.8 3.9
2 -4 -9 27.7 2.9
-2 4 9 23.8 4.3
1 -4 -9 22.1 4
1 -4 -9 31.7 2.4
1 -4 -9 34 4.3
1 -4 -9 30.1 3.9
-1 4 9 32.5 4.4
-1 4 9 29.3 4.3
0 -4 -9 26.4 4.4
0 -4 -9 26.1 4.3
0 4 9 28.7 4.3
0 4 9 31.3 4.8
-1 -4 -9 10.2 2.5
-1 -4 -9 19.1 4.2
-1 -4 -9 19.2 4.5
1 4 9 12.2 3.3
1 4 9 12.8 4.2
-2 -4 -9 3.1 2.7
-2 -4 -9 5.3 1.8
-2 -4 -9 13.5 3.6
2 4 9 4.7 3.7
2 4 9 9.2 3.2
-3 -4 -9 0.9 2.4
3 4 9 -1.7 2.2
3 4 9 1.7 2.3
-4 -4 -9 -1.8 2.4
4 4 9 -2.7 1.8
4 4 9 2.9 3.1
5 -5 -9 -4.6 3
5 -5 -9 -0.3 1.9
-5 5 9 0.4 2.4
4 -5 -9 -1.2 3.1
4 -5 -9 2.2 1.9
4 -5 -9 7.7 2.3
4 -5 -9 2.6 2.5
-4 5 9 2.8 2.8
3 -5 -9 12.9 3.4
3 -5 -9 13.3 2.6
3 -5 -9 16.4 2.7
-3 5 9 26.4 4.8
2 -5 -9 6.8 1.8
2 -5 -9 8.3 2.8
2 -5 -9 3.5 3
-2 5 9 3.6 2
-2 5 9 7 1.8
-2 5 9 8.7 2.9
1 -5 -9 50.39 3
1 -5 -9 52.29 5.3
1 -5 -9 46.2 4.8
-1 5 9 49 4.6
-1 5 9 49.99 5.3
-1 5 9 47.6 5.1
0 -5 -9 5.1 2.9
0 -5 -9 9.5 3.2
0 -5 -9 6.1 2.1
0 5 9 12.3 3.7
0 5 9 8.3 2.7
-1 -5 -9 3.6 2.9
1 5 9 -0.2 2.8
1 5 9 3.8 2.5
-2 -5 -9 36.7 5.9
2 5 9 49.7 5.8
2 5 9 37.9 6
-3 -5 -9 -1.4 2.5
3 5 9 2.7 3.1
3 5 9 2.3 2.5
-4 -5 -9 1.5 2.7
4 5 9 5.7 3.5
4 5 9 0.4 2.8
-5 6 9 -2.2 2.4
4 -6 -9 -2.6 3.6
4 -6 -9 -1.9 1.8
-4 6 9 5.3 3.2
3 -6 -9 4.3 2.2
3 -6 -9 -0.9 1.7
3 -6 -9 10.8 3.3
3 -6 -9 2.8 3.6
-3 6 9 3.2 2.8
2 -6 -9 -1.8 1.6
2 -6 -9 2.1 3
2 -6 -9 0.7 2.4
2 -6 -9 0.5 1.3
-2 6 9 3.1 2.7
-2 6 9 -1.4 2
-2 6 9 -0.6 2.2
1 -6 -9 12.8 3.5
1 -6 -9 10.1 1.5
1 -6 -9 4.7 2
1 -6 -9 1.4 3.2
-1 6 9 10.5 2.9
-1 6 9 10.9 3.5
-1 6 9 8.3 3.5
0 -6 -9 0.4 3
0 -6 -9 1.2 0.8
0 6 9 -0.6 4
0 6 9 4 2.6
-1 -6 -9 -3.6 3.6
1 6 9 1.3 2.6
-2 -6 -9 1.7 2.8
2 6 9 -0.2 2.5
2 6 9 -0.8 2.1
-3 -6 -9 -4.7 2.4
3 6 9 0.8 3
3 6 9 -2.4 2.2
-4 7 9 2.7 3
3 -7 -9 -6.7 3.8
3 -7 -9 4.2 2
-3 7 9 -1.4 2.4
2 -7 -9 4.1 1.9
2 -7 -9 -0.2 3.5
2 -7 -9 4.1 2.3
-2 7 9 9 2.6
-2 7 9 7.1 2.8
-2 7 9 6.4 3.2
1 -7 -9 -2 4.9
1 -7 -9 -2.4 1.1
-1 7 9 0.9 4
-1 7 9 0.8 2.3
0 -7 -9 -1 3.1
0 -7 -9 -0.6 0.9
0 7 9 2.3 2.4
-1 -7 -9 4.7 3.5
1 7 9 -3.8 2.3
-2 -7 -9 -0.3 3.2
2 7 9 2.7 2.7
2 7 9 8.9 4.1
-3 8 9 1.1 2.9
2 -8 -9 3.6 3
-2 8 9 1.9 2.7
-2 8 9 2.2 2.1
1 -8 -9 0 3.7
1 -8 -9 -3.5 1.4
-1 8 9 2 2.7
0 -8 -9 -0.3 3.6
0 -8 -9 3 1.2
0 8 9 2.8 3
1 8 9 -1.4 3
0 9 -10 1.2 3.7
0 9 -10 -4.3 2
-1 9 -10 2.6 2.9
-1 9 -10 3.4 5.1
2 8 -10 4 2.7
2 8 -10 6.8 3.9
-2 -8 10 8.4 3.7
1 8 -10 1.3 2.4
1 8 -10 1.5 3.2
-1 -8 10 -4.5 3.2
0 8 -10 1.5 2
0 8 -10 2.9 3.2
0 -8 10 -3.4 3.1
-1 8 -10 1.3 3.2
-1 8 -10 0 1.8
1 -8 10 -4.2 3.4
-2 8 -10 2.3 1.7
-2 8 -10 -2 2.9
2 -8 10 -1.1 3.8
-3 8 -10 4.4 4.5
-3 8 -10 -0.2 2.8
-4 -7 10 -2.3 1.8
3 7 -10 3.2 2.5
3 7 -10 7.1 3.4
-3 -7 10 2.4 2.6
-3 -7 10 5.9 3.3
-3 -7 10 1.7 1.2
2 7 -10 28.6 5.1
2 7 -10 20.2 3.7
-2 -7 10 28.7 5.1
1 7 -10 9.7 2.5
1 7 -10 11.4 4.5
-1 -7 10 12.1 4.3
0 7 -10 1.6 1.7
0 7 -10 -2.4 3.3
-1 7 -10 3.7 1.6
-1 7 -10 4.2 3.1
1 -7 10 3.2 3.7
-2 7 -10 3.2 3
2 -7 10 2.6 3.8
-3 7 -10 4.1 3
-3 7 -10 -1 1.9
3 -7 10 1.6 4.5
4 6 -10 8.9 4.5
4 6 -10 5.8 2.9
-4 -6 10 3.2 1.6
-4 -6 10 0.6 2.4
-4 -6 10 4.1 2.4
-4 -6 10 4.1 2.7
3 6 -10 16.7 3.4
3 6 -10 14.3 3.8
-3 -6 10 14.7 3.6
-3 -6 10 14.8 2.1
2 6 -10 1.1 2.4
2 6 -10 -1.5 1.7
-2 -6 10 1.5 2.2
-2 -6 10 0.4 2.8
1 6 -10 3.5 2
1 6 -10 3.8 3
-1 -6 10 5.2 3.4
-1 -6 10 3.2 3.1
0 6 -10 -0.4 1.4
0 6 -10 -1.5 2.1
0 -6 10 -3.6 2.4
0 -6 10 0.7 2.8
-1 6 -10 2.6 1.6
-1 6 -10 4.2 2.8
1 -6 10 0.5 2.9
-2 6 -10 2.4 2.7
-2 6 -10 -1 1.2
2 -6 10 2.8 3.7
-3 6 -10 148.09 6.7
-3 6 -10 165.18 10.1
-3 6 -10 142.59 5.9
-3 6 -10 148.49 5.9
3 -6 10 112.19 9.8
3 -6 10 110.19 9.6
-4 6 -10 22 5.9
4 -6 10 13.1 5
5 5 -10 8.5 3.1
5 5 -10 3.8 2.8
-5 -5 10 5.6 2.7
-5 -5 10 7.2 2
4 5 -10 27 4.4
4 5 -10 23.4 4.1
-4 -5 10 20.8 3.7
-4 -5 10 22.6 2.9
3 5 -10 38.6 6
3 5 -10 36.1 4.9
3 5 -10 40.9 5.2
-3 -5 10 31.9 3.8
-3 -5 10 29.3 4.2
-3 -5 10 28.3 3.9
-3 -5 10 36.5 4.5
2 5 -10 87.89 7.2
2 5 -10 82.49 6.6
2 5 -10 79.49 7.5
-2 -5 10 87.19 3.8
-2 -5 10 76.99 6.1
-2 -5 10 83.89 6.6
1 5 -10 166.68 8.6
1 5 -10 165.48 9.5
1 5 -10 174.28 10.1
-1 -5 10 155.98 8.7
-1 -5 10 170.78 9.6
0 5 -10 11.7 2.3
0 5 -10 13.1 3.5
0 -5 10 15.2 3.8
0 -5 10 16.7 4
-1 5 -10 0.5 1.2
-1 5 -10 -3.6 2.3
-1 5 -10 -0.5 2.1
1 -5 10 -2.1 2.6
1 -5 10 -1.1 2.8
-2 5 -10 2.9 2.7
-2 5 -10 -2.2 2.9
2 -5 10 -0.6 2.6
-3 5 -10 50.79 6.2
-3 5 -10 40.8 6
-3 5 -10 38.4 3.2
-3 5 -10 32.3 3.2
3 -5 10 44.1 7.2
-4 5 -10 8.2 4
-4 5 -10 10.9 3.4
4 -5 10 6.5 4.3
-5 5 -10 0.4 2.7
-5 5 -10 -4.6 3.9
-5 5 -10 -1.7 1.5
5 4 -10 6.5 4.7
5 4 -10 13.2 3.1
5 4 -10 15.5 3.6
-5 -4 10 14.2 3.3
-5 -4 10 14.4 2.8
4 4 -10 -1.7 2.5
4 4 -10 -1.6 5.2
4 4 -10 2.6 2.3
-4 -4 10 -0.4 1.1
-4 -4 10 1.4 2.7
3 4 -10 2.4 1.9
3 4 -10 1 3.1
3 4 -10 0.5 2
3 4 -10 1.9 2
-3 -4 10 2.2 2.2
-3 -4 10 0.4 1.5
-3 -4 10 1.6 2
2 4 -10 13.1 3.5
2 4 -10 18 3.2
2 4 -10 18.1 4.2
-2 -4 10 15.9 3.1
-2 -4 10 23.9 4
1 4 -10 72.89 5.4
1 4 -10 63.59 6.2
1 4 -10 66.29 6
-1 -4 10 72.59 6
-1 -4 10 67.89 5.4
0 4 -10 100.19 7.1
0 4 -10 95.29 7.2
0 4 -10 108.09 6.2
0 -4 10 110.39 7.7
0 -4 10 97.19 6.9
-1 4 -10 6.6 1.8
-1 4 -10 5.6 2.6
-1 4 -10 9.2 3.3
1 -4 10 15.3 3.9
1 -4 10 8.2 3
-2 4 -10 5.4 3.2
-2 4 -10 3.9 2.4
2 -4 10 1.6 2.9
-3 4 -10 574.34 18.7
-3 4 -10 640.14 22.9
-3 4 -10 560.44 18.3
-3 4 -10 636.84 22.5
3 -4 10 598.44 23.2
-4 4 -10 9.2 1.9
-4 4 -10 7.8 3
-4 4 -10 6.2 1.5
-4 4 -10 13.1 3.6
4 -4 10 3.3 4.4
-5 4 -10 3.3 2.9
-5 4 -10 12.1 3.7
-5 4 -10 1.8 1.6
5 -4 10 6.1 3.8
6 3 -10 0.2 3.6
6 3 -10 3.6 2.7
-6 -3 10 2 2
5 3 -10 42.2 4.6
5 3 -10 39 5.3
5 3 -10 35.6 5.3
-5 -3 10 38.9 4.8
-5 -3 10 33.4 3.9
4 3 -10 2.9 2.1
4 3 -10 1 2.1
4 3 -10 7 3.1
-4 -3 10 5.5 2.1
-4 -3 10 2.6 1.6
3 3 -10 1614.84 48.7
3 3 -10 1539.25 53.29
3 3 -10 1643.34 48
3 3 -10 1631.34 47.7
-3 -3 10 1605.74 47.2
-3 -3 10 1589.94 47.6
2 3 -10 277.77 11.8
2 3 -10 265.37 11.7
2 3 -10 278.67 12
2 3 -10 277.67 11.6
-2 -3 10 290.17 10.8
-2 -3 10 270.77 10.5
1 3 -10 12.4 2.5
1 3 -10 15.4 3.5
1 3 -10 9 2.7
1 3 -10 13.1 2.6
-1 -3 10 11.2 2.6
-1 -3 10 15.8 3.3
0 3 -10 107.69 7.1
0 3 -10 113.69 7
0 -3 10 104.79 6.9
0 -3 10 96.59 6.5
-1 3 -10 26.4 2.1
-1 3 -10 22.1 3.8
-1 3 -10 30 4.7
1 -3 10 26.1 4.2
1 -3 10 32.1 4.7
-2 3 -10 4.9 2.7
-2 3 -10 2.1 0.9
-2 3 -10 4.2 2.6
2 -3 10 2.7 3.1
2 -3 10 1.9 2.9
-3 3 -10 95.59 4.9
-3 3 -10 97.49 7.1
-3 3 -10 92.39 5.3
-3 3 -10 95.29 7.4
3 -3 10 88.29 7.9
3 -3 10 96.09 7.8
-4 3 -10 32.8 3.3
-4 3 -10 25.4 2.9
-4 3 -10 24.5 4.4
-4 3 -10 34.2 6.5
4 -3 10 28 5.5
-5 3 -10 1.9 3.5
-5 3 -10 -0.7 1.3
-5 3 -10 1.3 1.4
-5 3 -10 4.7 2.7
5 -3 10 -0.2 3.7
6 2 -10 -0.8 1.9
6 2 -10 3.1 2.1
-6 -2 10 4.2 2.5
-6 -2 10 2.4 2.3
5 2 -10 -0.7 1.7
-5 -2 10 0.6 1.9
-5 -2 10 1.2 1.6
4 2 -10 3.3 1.8
4 2 -10 1 2
4 2 -10 4.4 2.5
-4 -2 10 2.1 1.8
-4 -2 10 0.7 1.2
3 2 -10 1.4 1.8
3 2 -10 0.1 1.3
3 2 -10 0.9 2.4
3 2 -10 3.9 1.3
3 2 -10 1.8 1.9
-3 -2 10 0 1.8
2 2 -10 105.19 4.8
2 2 -10 115.89 6.8
2 2 -10 113.49 6.6
2 2 -10 106.79 9
2 2 -10 105.09 6.4
-2 -2 10 111.19 6
-2 -2 10 106.49 5.4
-2 -2 10 106.59 5.3
1 2 -10 50.09 4.5
1 2 -10 50.69 2.5
1 2 -10 44.2 4.7
-1 -2 10 43.3 4.3
-1 -2 10 53.39 4.6
0 2 -10 22.8 3.8
0 2 -10 22.1 2.2
0 -2 10 17.5 3
0 -2 10 23.2 3.7
-1 2 -10 615.84 21.7
1 -2 10 662.03 22.1
1 -2 10 622.64 21.8
-2 2 -10 626.74 19
-2 2 -10 631.64 20.1
-2 2 -10 635.44 22.2
-2 2 -10 637.64 22.1
2 -2 10 607.64 22.2
2 -2 10 644.14 22.6
-3 2 -10 24.8 3.1
-3 2 -10 30.2 4.7
-3 2 -10 33.2 4.7
-3 2 -10 29.2 3
3 -2 10 32.8 5.2
3 -2 10 31.4 5.2
-4 2 -10 1.5 4.7
-4 2 -10 1.9 1.5
-4 2 -10 -0.6 1.3
-4 2 -10 1.7 2.5
4 -2 10 -2.3 2.8
4 -2 10 -0.9 1.5
-5 2 -10 0.8 1.7
-5 2 -10 3 2.8
-5 2 -10 -1.5 3.1
-5 2 -10 4.5 1.8
5 -2 10 6 3.7
6 1 -10 0.8 1.6
6 1 -10 0.5 1.9
-6 -1 10 1 2
-6 -1 10 -2 1.6
5 1 -10 2 1.7
5 1 -10 -0.8 3.7
5 1 -10 -1.8 1.5
-5 -1 10 -2.1 1.7
-5 -1 10 0.4 1.4
4 1 -10 478.05 15.9
4 1 -10 495.55 17.9
4 1 -10 478.85 15.8
4 1 -10 454.65 16.5
-4 -1 10 466.05 16.9
3 1 -10 498.15 18.8
3 1 -10 531.55 18.4
3 1 -10 491.05 17.1
3 1 -10 507.45 16.8
-3 -1 10 512.15 17.3
2 1 -10 3.7 2.1
2 1 -10 8.2 2.5
2 1 -10 5.5 2.1
2 1 -10 4.1 1.2
-2 -1 10 5.2 1.6
-2 -1 10 5.1 1.7
-2 -1 10 5.1 1.6
1 1 -10 163.98 8.3
1 1 -10 179.48 6.5
1 1 -10 184.68 7.8
1 1 -10 182.68 8.4
-1 -1 10 180.38 7.7
-1 -1 10 173.58 7.8
0 1 -10 26.8 2.3
0 1 -10 26.5 3.8
0 1 -10 24.1 3.8
0 -1 10 22.7 3.6
0 -1 10 19.8 3.2
-1 1 -10 14.9 3.3
-1 1 -10 18.8 3.4
1 -1 10 15.7 3.4
1 -1 10 16.6 3.4
-2 1 -10 9.4 3.1
-2 1 -10 10.2 2
-2 1 -10 4.1 3
2 -1 10 3.7 3.2
2 -1 10 11 3.5
-3 1 -10 90.99 6.8
-3 1 -10 96.59 5.5
3 -1 10 83.19 7.3
3 -1 10 89.69 7.4
-4 1 -10 54.59 4.5
-4 1 -10 65.79 6.2
-4 1 -10 57.89 4.6
-4 1 -10 54.69 9.3
4 -1 10 68.99 7.3
4 -1 10 61.19 4.2
-5 1 -10 4.7 3.2
-5 1 -10 -1.1 1.6
-5 1 -10 2.3 2.6
-5 1 -10 -2 1.3
5 -1 10 4 3.3
5 -1 10 1.3 1.9
6 0 -10 1 2.4
-6 0 10 -2.2 1.9
5 0 -10 8.9 2.7
-5 0 10 8.6 2.8
4 0 -10 15.4 3
4 0 -10 11.6 2.6
4 0 -10 11.4 3.3
4 0 -10 11.7 2.4
-4 0 10 17.6 2.9
3 0 -10 222.18 8.7
3 0 -10 209.88 10.2
3 0 -10 213.38 8.9
3 0 -10 210.48 8.5
-3 0 10 219.38 9
2 0 -10 2.7 1.8
2 0 -10 2.7 1.6
2 0 -10 4 2
2 0 -10 1.4 1
-2 0 10 1.1 1.3
1 0 -10 -2.9 1.7
1 0 -10 -0.4 1.6
1 0 -10 -1.3 1
-1 0 10 0 1.2
-1 0 10 0.3 1
-1 0 10 0.6 1.7
-1 0 10 -0.4 1.5
0 0 -10 2.9 2
0 0 -10 3.4 2
0 0 10 0.9 2.1
0 0 10 3 1.3
0 0 10 2.3 2
-1 0 -10 149.49 8.2
-1 0 -10 157.08 7.4
-1 0 -10 145.29 8.1
1 0 10 154.18 8.3
1 0 10 161.78 8.7
-2 0 -10 154.68 8.5
-2 0 -10 148.29 7.4
-2 0 -10 158.08 8.8
2 0 10 145.69 9.1
2 0 10 146.39 8.8
-3 0 -10 42.7 4.1
-3 0 -10 39.2 5
-3 0 -10 46.3 5.4
3 0 10 45.5 3
3 0 10 44.4 5.6
-4 0 -10 39 5.4
-4 0 -10 31.2 4
-4 0 -10 48.4 5.7
4 0 10 40.1 6.2
4 0 10 36.9 3.1
-5 0 -10 1.9 2.3
-5 0 -10 -1.1 1.4
-5 0 -10 1.6 2.9
5 0 10 -3 1.7
5 0 10 0 2.8
6 -1 -10 2.6 2.1
5 -1 -10 3.6 2.2
-5 1 10 0.2 1.8
4 -1 -10 446.56 14.1
4 -1 -10 425.36 16.2
4 -1 -10 461.75 16.6
4 -1 -10 450.95 14.3
-4 1 10 441.26 16
3 -1 -10 90.09 5.2
3 -1 -10 88.49 5.2
3 -1 -10 85.09 4.9
3 -1 -10 83.09 6.1
-3 1 10 83.39 6.3
-3 1 10 84.69 5
2 -1 -10 35.6 3.8
2 -1 -10 32.5 3.7
2 -1 -10 33.4 3.1
2 -1 -10 27 3.6
-2 1 10 33.4 2.9
-2 1 10 39.3 4.1
1 -1 -10 12.4 2.6
1 -1 -10 14.3 2.9
-1 1 10 9.8 2.4
-1 1 10 15 2.6
-1 1 10 11.4 1.5
-1 1 10 12.5 2.4
0 -1 -10 1.2 1.9
0 -1 -10 2 1.8
0 1 10 0.9 1.8
0 1 10 0.2 1.1
0 1 10 0.5 2.1
0 1 10 0.4 0.7
-1 -1 -10 29.5 4.3
-1 -1 -10 25.9 3.6
-1 -1 -10 30.8 4.4
1 1 10 34.7 4.7
1 1 10 33.4 4.5
1 1 10 27 2.3
-2 -1 -10 2.5 1.6
-2 -1 -10 4.3 2.5
-2 -1 -10 1.7 2.3
2 1 10 0.4 2.4
2 1 10 1.4 3
-3 -1 -10 64.89 5.1
-3 -1 -10 64.29 6.2
3 1 10 66.29 3.2
3 1 10 73.59 6.7
-4 -1 -10 -1.3 2.1
-4 -1 -10 -0.7 2.5
-4 -1 -10 0.6 1.6
4 1 10 4.9 3.3
-5 -1 -10 3.4 2.4
-5 -1 -10 4.3 3.3
5 1 10 5.7 2.1
5 1 10 11 4.1
6 -2 -10 -1.8 1.9
5 -2 -10 9.5 2.4
-5 2 10 9.9 3.4
4 -2 -10 1.6 1.6
4 -2 -10 0 1.5
4 -2 -10 4.3 2.6
4 -2 -10 -2.3 1.7
-4 2 10 2.7 2.2
3 -2 -10 61.89 4.7
3 -2 -10 61.99 4.2
3 -2 -10 53.49 5.3
3 -2 -10 59.79 4.5
3 -2 -10 60.79 4.6
-3 2 10 68.69 4.4
-3 2 10 62.49 5.6
2 -2 -10 18.2 3
2 -2 -10 20 3.3
-2 2 10 13.4 3
-2 2 10 18.9 2.4
1 -2 -10 32.2 3.8
1 -2 -10 30.2 4.1
-1 2 10 29.3 3.5
-1 2 10 28.8 3.4
-1 2 10 28.2 3.9
0 -2 -10 3.8 2.5
0 -2 -10 2.9 2.3
0 -2 -10 1.8 1.6
0 2 10 3.1 1.8
0 2 10 3.9 2.2
0 2 10 4.8 2.9
-1 -2 -10 -1.6 1.8
-1 -2 -10 0.7 2.6
-1 -2 -10 0.9 1.5
1 2 10 2.1 1.6
1 2 10 1.6 2.4
1 2 10 -2.2 3
-2 -2 -10 29.5 4.7
-2 -2 -10 32.8 4.9
-2 -2 -10 37.5 4.2
2 2 10 37.2 6.2
2 2 10 34.2 5.2
-3 -2 -10 5.8 2.7
-3 -2 -10 3.1 1.5
-3 -2 -10 5.5 3
3 2 10 5 3
-4 -2 -10 2.2 2.6
4 2 10 0 2.9
5 2 10 10.4 4.4
6 -3 -10 7.7 2.3
5 -3 -10 28.3 4.1
-5 3 10 21.9 4.5
4 -3 -10 31.8 4.1
4 -3 -10 22.3 3
-4 3 10 21.7 4.3
3 -3 -10 4.2 2.1
3 -3 -10 3.7 1.8
3 -3 -10 1.3 1.4
3 -3 -10 3.9 1.9
-3 3 10 4.8 2.6
2 -3 -10 28.5 4.8
2 -3 -10 54.09 4
2 -3 -10 45.1 4.3
-2 3 10 37.9 4.5
1 -3 -10 7 2.2
1 -3 -10 3.2 2.1
1 -3 -10 8.1 2.9
-1 3 10 7.9 2.2
-1 3 10 7.8 2.5
-1 3 10 7.6 2.6
0 -3 -10 2.9 2.3
0 -3 -10 2.4 1.7
0 -3 -10 4.4 3
0 3 10 5 1.9
0 3 10 2.1 2.2
0 3 10 0.4 2.6
-1 -3 -10 14 3.8
-1 -3 -10 14.3 3.4
-1 -3 -10 12.3 2.3
1 3 10 11.1 3.2
1 3 10 7 4
-2 -3 -10 1.9 2.5
-2 -3 -10 3.5 2.8
-2 -3 -10 0.4 1.3
2 3 10 -2.9 3.3
2 3 10 2.5 2.6
-3 -3 -10 -2.9 2
3 3 10 0.4 2.6
-4 -3 -10 2.4 2.7
4 3 10 5.2 3.3
5 3 10 31.7 3
5 -4 -10 -1.5 2.3
-5 4 10 1.6 2.6
4 -4 -10 15.9 3.1
4 -4 -10 22.3 3.5
4 -4 -10 20.8 3.4
-4 4 10 21.2 6.4
3 -4 -10 22 2.9
3 -4 -10 16.2 2.9
3 -4 -10 17.8 3
3 -4 -10 20 3.3
-3 4 10 27.9 4.7
2 -4 -10 3.4 1.6
2 -4 -10 1.3 1.6
2 -4 -10 3.4 2.5
2 -4 -10 2.8 2.3
-2 4 10 2.1 2.1
1 -4 -10 0.3 2.6
1 -4 -10 1.4 2.1
1 -4 -10 0.3 1.3
1 -4 -10 1.4 1
-1 4 10 1.9 1.9
-1 4 10 0.7 2.4
-1 4 10 -0.7 1.4
0 -4 -10 -1.5 2
0 -4 -10 0.9 1.9
0 -4 -10 0.2 2.7
0 4 10 0.9 2.1
0 4 10 0.2 1.9
0 4 10 2.2 3
-1 -4 -10 14 3.6
1 4 10 10.3 3.3
-2 -4 -10 131.99 9.1
2 4 10 138.29 9.2
-3 -4 -10 1.2 2.6
3 4 10 1.6 2.7
-4 -4 -10 2.5 2.6
4 4 10 2.7 3.4
5 -5 -10 -0.1 3.1
5 -5 -10 2.6 2.2
-5 5 10 3.8 3
4 -5 -10 6.1 2.5
4 -5 -10 0.7 2.1
4 -5 -10 0 2.6
-4 5 10 3.1 2.5
3 -5 -10 5.3 2.2
3 -5 -10 -3 1.6
3 -5 -10 0 2.5
3 -5 -10 1.4 2.1
-3 5 10 2.8 2.1
2 -5 -10 7.4 1.8
2 -5 -10 3.2 2.9
2 -5 -10 13 3
2 -5 -10 3.1 3.4
-2 5 10 7 2.1
-2 5 10 6.4 1.8
-2 5 10 5.5 2.8
1 -5 -10 -1.1 2.6
1 -5 -10 0.3 1.1
1 -5 -10 6 2.5
1 -5 -10 -1.9 1.3
-1 5 10 -0.6 2
-1 5 10 1.5 1.9
-1 5 10 -0.3 2.8
0 -5 -10 4.6 3.4
0 -5 -10 9.5 3.2
0 -5 -10 7.7 2.4
0 5 10 9 4
0 5 10 7 2.7
-1 -5 -10 2.4 2.9
1 5 10 3.1 3.5
1 5 10 6.4 2.9
2 5 10 51.59 9.7
3 5 10 26.6 5.2
4 5 10 -2.8 2.9
4 -6 -10 0.2 3.8
4 -6 -10 13.5 3.4
4 -6 -10 0 2.2
-4 6 10 15.5 4.3
3 -6 -10 -2.6 2.8
3 -6 -10 -2.9 1.7
3 -6 -10 2.5 2.2
3 -6 -10 5.1 2.6
-3 6 10 0.2 2.3
2 -6 -10 4.3 1.6
2 -6 -10 1.8 2.7
2 -6 -10 -0.7 3.1
2 -6 -10 -1.1 1.7
-2 6 10 0.5 2.2
-2 6 10 1.3 2.5
1 -6 -10 0.8 3
1 -6 -10 0.2 1.2
-1 6 10 3 3.3
-1 6 10 0.7 2.4
-1 6 10 0.7 2
0 -6 -10 1.1 3
0 6 10 4.4 2.7
0 6 10 -6 3.7
1 6 10 19.9 4.4
-2 -6 -10 1.8 3.3
2 6 10 4.1 3.1
3 6 10 1.6 3.4
-4 7 10 5.1 3.3
3 -7 -10 3.8 2.1
3 -7 -10 -5 5
-3 7 10 -1.1 2.2
2 -7 -10 6.9 1.9
2 -7 -10 3.9 5.3
-2 7 10 3.7 3
-2 7 10 4.3 2.2
1 -7 -10 0.5 3.3
1 -7 -10 -0.9 1.5
-1 7 10 -3.9 5.6
-1 7 10 2.8 2.6
-1 7 10 0.2 2.8
0 -7 -10 0.3 3.3
0 7 10 1 2.6
-1 -7 -10 6.4 3.7
1 7 10 16.1 4.2
2 7 10 2.5 3.2
2 -8 -10 2.9 1.9
-2 8 10 3 3.5
-2 8 10 0.8 2.4
1 -8 -10 -2.4 1.4
-1 8 10 0.7 3.4
-1 8 10 -1.6 2.6
0 8 10 0.2 2.8
2 8 -11 -1.9 2.3
2 8 -11 0.7 3.2
1 8 -11 0.5 2.1
1 8 -11 3.6 3.5
-1 -8 11 -2.7 2.8
0 8 -11 -0.8 2.8
0 8 -11 1.2 2
0 -8 11 -2.6 3.5
-1 8 -11 2 2
-1 8 -11 0.5 2.9
1 -8 11 -5.1 3.7
-2 8 -11 -4.9 2.7
-2 8 -11 -2.4 1.6
3 7 -11 5.2 3.2
3 7 -11 -1.4 2.1
-3 -7 11 -1.7 3
-3 -7 11 -0.3 1.2
-3 -7 11 2 2.9
2 7 -11 20.3 4.5
2 7 -11 13.8 3
-2 -7 11 20.2 4.5
1 7 -11 2.7 2.2
1 7 -11 -1.7 2.6
-1 -7 11 1.9 4.7
0 7 -11 3.3 2
0 7 -11 7.7 3.4
0 -7 11 2.2 3.6
-1 7 -11 -1.1 1.5
-1 7 -11 2.6 2.9
1 -7 11 -2.1 3.3
-2 7 -11 14.4 4.1
-2 7 -11 13.2 2.2
2 -7 11 2.7 3.9
-3 7 -11 0 1.9
-3 7 -11 3.8 3.1
3 -7 11 2.6 4.8
4 6 -11 14 3.5
4 6 -11 20.7 4.7
-4 -6 11 5.6 2.3
-4 -6 11 8.7 2.9
-4 -6 11 11.8 2.2
3 6 -11 25 4.1
3 6 -11 28 5
-3 -6 11 17.4 3.2
-3 -6 11 29.9 5
-3 -6 11 24.4 2.5
2 6 -11 0.4 1.8
2 6 -11 2.7 2.8
-2 -6 11 -0.1 2.6
-2 -6 11 3.4 2.7
1 6 -11 1.1 1.8
1 6 -11 1.1 2.5
-1 -6 11 0.6 2.9
-1 -6 11 -2.7 2.6
0 6 -11 -0.7 2.6
0 6 -11 2.6 1.7
0 -6 11 0.2 3.1
-1 6 -11 7.1 2
-1 6 -11 4.3 3.2
1 -6 11 6.1 3.6
-2 6 -11 -0.4 1.3
-2 6 -11 -1.2 4.3
2 -6 11 -0.5 3.4
-3 6 -11 110.59 8.6
-3 6 -11 87.59 4.8
-3 6 -11 89.69 4.8
-3 6 -11 87.69 4.7
3 -6 11 91.19 9.2
-4 6 -11 15.6 4.2
5 5 -11 -1.1 2.6
5 5 -11 0.2 3.3
-5 -5 11 -2.4 1.2
4 5 -11 17.1 3.9
4 5 -11 11.2 3.2
-4 -5 11 10.4 2.9
-4 -5 11 15.3 2.3
3 5 -11 18.3 6.3
3 5 -11 12.8 3.3
-3 -5 11 10.4 1.8
-3 -5 11 8.5 3.5
-3 -5 11 18.5 3.6
-3 -5 11 15.1 2.9
2 5 -11 10.1 3.9
2 5 -11 9.3 2.6
2 5 -11 8.9 3
-2 -5 11 8.3 3.1
-2 -5 11 11.9 3.2
1 5 -11 25.4 4.7
1 5 -11 21.4 3.4
1 5 -11 20.5 4.2
-1 -5 11 31.5 5.1
-1 -5 11 22.8 4.2
0 5 -11 4.5 1.8
0 5 -11 5 2.6
0 -5 11 8.4 3.4
0 -5 11 -2.5 2.7
-1 5 -11 2.9 3.5
-1 5 -11 10.2 3.2
-1 5 -11 4.1 1.7
1 -5 11 10.8 3.9
1 -5 11 3 3.1
-2 5 -11 1.8 1.4
-2 5 -11 3 2.7
2 -5 11 5.1 3.4
-3 5 -11 1.3 1.4
-3 5 -11 3.5 2.7
3 -5 11 2.3 3.6
4 -5 11 2.3 4.5
5 4 -11 8.1 2.8
5 4 -11 5.3 2.8
-5 -4 11 4.5 2.6
-5 -4 11 6.1 2.1
4 4 -11 17.2 4.7
4 4 -11 21.5 3.7
4 4 -11 27.6 4.6
-4 -4 11 16.5 3.1
-4 -4 11 23.4 3.1
3 4 -11 13.9 5.2
3 4 -11 6.1 2.4
3 4 -11 13.1 3.2
-3 -4 11 10.4 1.9
-3 -4 11 18.3 2.9
-3 -4 11 10.5 2.2
-3 -4 11 11.6 2.9
2 4 -11 1.6 3.1
2 4 -11 3.6 2.5
2 4 -11 3.6 1.9
-2 -4 11 1.7 2.6
-2 -4 11 2.7 2.3
1 4 -11 -0.6 2.6
1 4 -11 1.4 1.6
1 4 -11 -1.6 1.9
-1 -4 11 0.1 2.4
-1 -4 11 0.3 2
0 4 -11 0 2
0 4 -11 3.1 2.8
0 4 -11 2.6 1.8
0 -4 11 3.7 2.9
0 -4 11 6 2.5
-1 4 -11 28.8 5
-1 4 -11 25.5 3.2
-1 4 -11 27.7 4.5
1 -4 11 25.4 4.7
1 -4 11 21.1 7
-2 4 -11 490.65 19
-2 4 -11 476.35 18.9
2 -4 11 501.25 19.9
-3 4 -11 5.5 2.9
-3 4 -11 1.9 1.3
-3 4 -11 3.4 1.2
-3 4 -11 13.1 4
3 -4 11 11.4 4.2
-4 4 -11 -2.2 1.1
-4 4 -11 -1 2.6
-4 4 -11 0.2 1.2
4 -4 11 -2 3.1
-5 4 -11 -2.4 1.3
-5 4 -11 2.4 2.8
5 3 -11 -3.6 3.6
5 3 -11 2.3 2.2
5 3 -11 0.4 1.9
-5 -3 11 3.9 2
-5 -3 11 2 2.1
4 3 -11 1.5 2
4 3 -11 2.9 3.2
4 3 -11 0 2
-4 -3 11 -0.8 1.6
-4 -3 11 1.9 1.2
3 3 -11 15.2 3.6
3 3 -11 15.4 3.5
3 3 -11 14.3 3.1
3 3 -11 8.1 2.2
-3 -3 11 10.4 2.7
2 3 -11 119.29 7.5
2 3 -11 126.49 7.2
2 3 -11 126.99 7.4
2 3 -11 120.99 7.8
-2 -3 11 120.79 6.6
-2 -3 11 129.99 6.8
1 3 -11 16.6 3.8
1 3 -11 11.8 2.5
1 3 -11 14.1 2.6
1 3 -11 15.3 3.3
-1 -3 11 21.6 3.8
-1 -3 11 14.5 3
0 3 -11 16.9 3.5
0 3 -11 21.3 4.2
0 3 -11 21 2.4
0 -3 11 22.7 4.2
0 -3 11 18.5 3.4
-1 3 -11 2.7 1
-1 3 -11 0 2.6
-1 3 -11 3.4 2.3
1 -3 11 0.8 2.5
1 -3 11 3.4 2.9
-2 3 -11 152.58 5.9
-2 3 -11 172.08 9.8
2 -3 11 167.88 10
-3 3 -11 5.5 1.7
-3 3 -11 8.9 3.3
-3 3 -11 4.1 2.8
-3 3 -11 3.4 1.6
3 -3 11 0 3.2
-4 3 -11 2.8 1.4
-4 3 -11 8.2 3.8
-4 3 -11 0.1 1.3
-4 3 -11 1.5 2.7
4 -3 11 -1.9 3.3
-5 3 -11 1.9 2.9
-5 3 -11 -0.4 1.4
5 -3 11 -2.8 3.6
6 2 -11 5.8 2.2
6 2 -11 8.2 2.8
-6 -2 11 2.3 2.2
-6 -2 11 6.7 2.6
5 2 -11 1.6 2.1
5 2 -11 -2.3 1.7
-5 -2 11 0.3 1.8
-5 -2 11 1.6 1.7
4 2 -11 4.6 1.9
4 2 -11 1.2 1.9
4 2 -11 -2.4 1.9
-4 -2 11 0.9 1.6
3 2 -11 -2.4 1.4
3 2 -11 -1.1 1
3 2 -11 -1.2 1.7
3 2 -11 -3.6 1.7
-3 -2 11 -1 1.4
2 2 -11 68.89 5.6
2 2 -11 63.69 5.1
2 2 -11 68.99 5.3
2 2 -11 69.09 3.7
-2 -2 11 72.39 5
-2 -2 11 64.69 4.4
-2 -2 11 64.29 4.5
1 2 -11 284.17 12.1
1 2 -11 284.37 12.1
1 2 -11 296.87 11.2
1 2 -11 275.57 9.1
-1 -2 11 299.27 11.7
-1 -2 11 290.37 11.5
0 2 -11 96.19 4.9
0 2 -11 106.59 6.9
0 -2 11 96.19 6.7
0 -2 11 99.29 6.6
-1 2 -11 18.3 3.8
1 -2 11 18.4 3.9
1 -2 11 23.7 4.2
-2 2 -11 1427.06 42.2
-2 2 -11 1462.85 44.6
-2 2 -11 1481.25 44.7
2 -2 11 1475.95 45
2 -2 11 1333.17 49.2
-3 2 -11 70.29 6.7
-3 2 -11 72.99 4.4
-3 2 -11 83.59 5.1
-3 2 -11 85.39 6.8
3 -2 11 71.99 7.1
-4 2 -11 16.4 3.9
-4 2 -11 18.9 4.5
-4 2 -11 10.5 2
-4 2 -11 10.3 2.3
4 -2 11 9.8 2.3
4 -2 11 13.8 6.4
-5 2 -11 1 1.7
-5 2 -11 3.2 2.8
-5 2 -11 -3 1.7
5 -2 11 1.7 3.4
6 1 -11 3.8 2.5
6 1 -11 10.5 2.2
-6 -1 11 5.6 2.7
5 1 -11 0.8 2.4
5 1 -11 -1.6 1.8
5 1 -11 2.5 1.8
-5 -1 11 1.4 1.7
4 1 -11 429.76 15.9
4 1 -11 468.45 15.6
4 1 -11 452.15 15.5
4 1 -11 473.85 17.6
-4 -1 11 435.46 16.4
3 1 -11 340.17 12.2
3 1 -11 331.57 14.1
3 1 -11 339.47 12.6
3 1 -11 334.77 13.7
-3 -1 11 329.17 12.6
2 1 -11 10 2.9
2 1 -11 6.4 1.8
2 1 -11 6.3 2.1
2 1 -11 4 2.6
-2 -1 11 4.5 1.8
-2 -1 11 5.5 1.8
-2 -1 11 3.7 1.6
1 1 -11 82.59 4
1 1 -11 77.69 5.8
1 1 -11 96.99 6.2
1 1 -11 81.39 5.3
-1 -1 11 80.69 5.4
-1 -1 11 77.69 5.2
0 1 -11 30.9 4.4
0 1 -11 26.7 4.2
0 1 -11 21.7 2.3
0 -1 11 26.9 4.1
0 -1 11 26.1 4
-1 1 -11 113.59 7.5
-1 1 -11 100.09 7
1 -1 11 103.69 7.5
1 -1 11 113.49 7.5
-2 1 -11 324.87 12.3
-2 1 -11 321.37 14.1
-2 1 -11 338.97 14.3
2 -1 11 323.07 14.4
2 -1 11 301.57 14.4
-3 1 -11 22 2.9
-3 1 -11 33.2 5
3 -1 11 23.5 4.8
-4 1 -11 8.6 3.5
-4 1 -11 8.9 3
-4 1 -11 1 1.7
-4 1 -11 2.1 1.5
4 -1 11 3.8 1.6
4 -1 11 6 5.9
-5 1 -11 1.7 2
-5 1 -11 -0.8 1.9
-5 1 -11 1 2.8
5 -1 11 3.6 3.7
5 -1 11 -0.8 2
6 0 -11 0.3 1.9
-6 0 11 -2.2 1.8
5 0 -11 -2.6 2
5 0 -11 -0.9 1.7
-5 0 11 0.8 1.8
4 0 -11 -0.7 1.7
4 0 -11 -1.2 2
4 0 -11 0.2 1.8
-4 0 11 1.4 1.6
3 0 -11 17.7 3.4
3 0 -11 24 3.3
3 0 -11 14.9 2.5
-3 0 11 18.1 2.7
2 0 -11 10.2 1.9
2 0 -11 10.5 2.3
2 0 -11 10.4 2.6
2 0 -11 12.1 2.6
-2 0 11 6.9 1.8
1 0 -11 -1.4 1.6
1 0 -11 1.2 2
1 0 -11 -0.1 1.1
-1 0 11 0.7 1.4
-1 0 11 -1.4 0.9
-1 0 11 1.2 2
-1 0 11 -0.9 1.7
0 0 -11 498.05 17.5
0 0 -11 474.55 17.3
0 0 11 453.55 16.9
0 0 11 481.35 17
-1 0 -11 1859.31 56.09
-1 0 -11 1916.61 56.39
-1 0 -11 1859.51 54.79
1 0 11 1932.61 56.19
1 0 11 1902.21 56.29
-2 0 -11 14 3.9
-2 0 -11 13.4 2.4
-2 0 -11 15.9 3.7
2 0 11 12.9 3.8
2 0 11 13.8 4.1
-3 0 -11 5.8 2.1
-3 0 -11 13.4 3.6
-3 0 -11 10.4 3.2
3 0 11 9.8 3.5
3 0 11 6.8 1.5
-4 0 -11 -3.8 1.8
-4 0 -11 4.6 2.9
4 0 11 -0.5 3.8
4 0 11 -1.3 1.2
-5 0 -11 0.6 1.4
-5 0 -11 1.1 4.8
5 0 11 0.5 2
5 0 11 -1.8 3.2
6 -1 -11 -1.3 2.7
5 -1 -11 151.58 8.8
-5 1 11 149.39 9.7
4 -1 -11 84.09 5.8
4 -1 -11 82.39 4.8
4 -1 -11 80.69 5
-4 1 11 83.29 5.6
3 -1 -11 28.7 4.8
3 -1 -11 30.7 3.7
3 -1 -11 26 3.2
3 -1 -11 29.5 3.9
-3 1 11 28.8 3.2
-3 1 11 31.1 4.2
2 -1 -11 82.09 5.7
2 -1 -11 88.99 5.2
2 -1 -11 86.99 5.6
2 -1 -11 92.19 6
-2 1 11 92.19 5.5
-2 1 11 87.89 5.9
1 -1 -11 26 3.8
1 -1 -11 35.2 4.6
-1 1 11 25.4 3.5
-1 1 11 26.6 3.5
-1 1 11 32.3 4
-1 1 11 28.7 2.3
0 -1 -11 2.2 2.4
0 -1 -11 3.1 2.1
0 1 11 4.9 1
0 1 11 -0.2 2.3
0 1 11 4 2.4
0 1 11 3.9 1.7
-1 -1 -11 5.7 3.2
-1 -1 -11 6.7 2.2
-1 -1 -11 5.8 3.1
1 1 11 2.3 2.9
1 1 11 7.5 1.7
1 1 11 2.9 3.6
-2 -1 -11 304.67 12.3
-2 -1 -11 292.37 16.2
-2 -1 -11 306.97 13.7
2 1 11 310.17 13.8
-3 -1 -11 65.99 6.5
-3 -1 -11 50.49 6.4
-3 -1 -11 82.89 7
3 1 11 76.59 7.1
3 1 11 69.19 3.2
-4 -1 -11 1.4 1.8
-4 -1 -11 0 2.3
4 1 11 0.9 2.9
4 1 11 -1.9 1.2
-5 -1 -11 2 1.8
-5 -1 -11 -1.4 3.1
5 1 11 0.6 2.2
5 1 11 0.9 3.4
6 -2 -11 3.1 2.2
5 -2 -11 4 2
4 -2 -11 54.69 4
4 -2 -11 56.99 5
4 -2 -11 50.49 5.1
-4 2 11 57.59 6
3 -2 -11 3.7 1.5
3 -2 -11 3.1 1.9
3 -2 -11 5.2 2
3 -2 -11 1.1 2.2
-3 2 11 2.5 2
-3 2 11 3.5 1.4
2 -2 -11 2.1 2.6
2 -2 -11 2.3 2.1
-2 2 11 0 1.5
-2 2 11 3.4 1.3
1 -2 -11 18.9 3.4
1 -2 -11 21.6 3.6
-1 2 11 18.9 3.3
-1 2 11 16.9 3
-1 2 11 18.2 2.9
0 -2 -11 19.6 3.2
0 -2 -11 18.7 3.8
0 -2 -11 18.3 3.8
0 2 11 18.4 2.9
0 2 11 21.3 4.1
0 2 11 22.4 3.7
-1 -2 -11 393.76 16.3
-1 -2 -11 386.56 14.8
-1 -2 -11 392.66 15.8
1 2 11 393.76 15.8
1 2 11 401.66 13.6
-2 -2 -11 24.2 4.4
-2 -2 -11 17.7 3.9
-2 -2 -11 13.2 2.8
2 2 11 23.6 2.6
2 2 11 20 4.1
-3 -2 -11 48.7 5.9
3 2 11 62.19 6.9
-4 -2 -11 5.2 2.9
4 2 11 5.5 3.6
5 2 11 3.3 4.1
5 -3 -11 124.19 7.5
-5 3 11 109.69 9.1
4 -3 -11 2.1 2.3
4 -3 -11 3.7 2
4 -3 -11 2.1 2.1
-4 3 11 3.9 2.8
3 -3 -11 1 1.7
3 -3 -11 -2.6 1.7
3 -3 -11 0.8 1.8
3 -3 -11 5.2 4
-3 3 11 2.2 2
2 -3 -11 13.7 2.1
2 -3 -11 10.8 2.8
2 -3 -11 13.6 2.9
-2 3 11 11.6 3.1
1 -3 -11 0.5 1.9
1 -3 -11 -2.1 1.5
1 -3 -11 1.3 2.6
-1 3 11 -1.7 1.5
-1 3 11 1 1.7
-1 3 11 -2 2.7
0 -3 -11 17.4 3.9
0 -3 -11 25.8 4.3
0 -3 -11 21.8 3.3
0 3 11 15.7 3.5
0 3 11 27.6 3.6
0 3 11 11.9 4.1
-1 -3 -11 17.7 4
-1 -3 -11 9.3 2.9
1 3 11 18.8 3.2
1 3 11 11.6 4.3
1 3 11 15.7 3.7
-2 -3 -11 98.09 8
2 3 11 103.19 7.9
-3 -3 -11 1.3 3.5
3 3 11 0.4 3
-4 -3 -11 1.4 2.6
4 3 11 6.4 3.5
5 -4 -11 -1 2.4
-5 4 11 0 2.6
4 -4 -11 15.6 2.9
4 -4 -11 9 2.9
4 -4 -11 9.2 2.6
-4 4 11 17.2 3.9
3 -4 -11 1.7 2.1
3 -4 -11 -2.2 1.7
3 -4 -11 -2.7 2.1
3 -4 -11 -1.1 1.7
-3 4 11 -0.2 2
2 -4 -11 -0.4 2.2
2 -4 -11 6.2 1.8
2 -4 -11 2.1 2.2
2 -4 -11 1.6 2.4
-2 4 11 1.9 2.1
1 -4 -11 20 3
1 -4 -11 34.7 4.8
1 -4 -11 31.2 5
-1 4 11 33 4.5
-1 4 11 32.7 4
-1 4 11 27 4
0 -4 -11 27.7 5
0 -4 -11 27.3 4.8
0 4 11 22.7 3.8
0 4 11 34.2 5.2
0 4 11 28.9 4
-1 -4 -11 4 2.8
1 4 11 1.7 3.7
1 4 11 6.5 2.8
-2 -4 -11 1.9 2.8
2 4 11 4.5 3
-3 -4 -11 -2.9 2.2
3 4 11 -1.8 2.3
4 4 11 9.3 4.2
5 -5 -11 9.5 2.6
-5 5 11 10.3 4.1
4 -5 -11 -0.1 2.7
4 -5 -11 0.6 2.2
-4 5 11 -0.6 2.1
3 -5 -11 3.4 2.5
3 -5 -11 3.7 2.6
3 -5 -11 1.3 1.9
3 -5 -11 4.1 2.1
-3 5 11 5.4 3.1
2 -5 -11 0.4 1.6
2 -5 -11 0.6 2.2
2 -5 -11 -0.7 2.5
-2 5 11 -0.5 2.1
-2 5 11 -1.3 1.8
-2 5 11 -1.3 1.4
1 -5 -11 -4.2 2.2
1 -5 -11 -2 1.5
1 -5 -11 -2.4 1.1
1 -5 -11 -4.4 2.6
-1 5 11 1.7 2.2
-1 5 11 -3.6 2.8
-1 5 11 0.6 1.7
0 -5 -11 -1.3 2.8
0 5 11 2.2 3.2
0 5 11 -0.8 2.2
-1 -5 -11 2.6 4
1 5 11 9.8 3.3
-2 -5 -11 2.3 2.9
2 5 11 4.1 2.9
-3 -5 -11 1 2.7
3 5 11 2.2 3.1
4 -6 -11 8.9 3
-4 6 11 1.8 2.8
3 -6 -11 5.4 4.2
3 -6 -11 -1 2.8
3 -6 -11 1.2 2.8
-3 6 11 -1.4 2
2 -6 -11 0.3 3.2
2 -6 -11 -2.5 1.7
-2 6 11 1.4 2.6
1 -6 -11 -0.4 1.3
1 -6 -11 -2.2 2.9
-1 6 11 1.7 2.4
-1 6 11 -0.6 2
0 -6 -11 -1.7 2.9
0 6 11 2 2.5
0 6 11 1 6
1 6 11 34.7 5.6
-2 -6 -11 -2.5 3
2 6 11 5.5 3.1
-3 7 11 1.3 2.8
2 -7 -11 -5.3 3.1
2 -7 -11 5.1 2
-2 7 11 0.3 2
-2 7 11 -1.1 2.5
-2 7 11 -5.4 2.7
1 -7 -11 -1.5 1.5
1 -7 -11 -1.6 3.4
-1 7 11 -2.7 2.2
-1 7 11 2 2.5
0 -7 -11 2.9 3.3
0 7 11 -3.8 2.5
1 7 11 9.3 3.7
-1 8 11 -3.4 3.3
1 8 -12 3 2.5
1 8 -12 -0.2 3.1
0 8 -12 -0.3 3.3
0 -8 12 -0.5 3.5
-1 8 -12 2 2.1
-1 8 -12 0.8 3.4
3 7 -12 7.4 3.4
3 7 -12 1.9 2.2
2 7 -12 17.3 3.4
-2 -7 12 16.8 4.3
1 7 -12 -1.9 2.5
1 7 -12 1.3 2.8
-1 -7 12 0 3.4
0 7 -12 1.2 2.9
0 7 -12 -1.1 1.6
0 -7 12 -3.2 3.2
-1 7 -12 45 6.8
-1 7 -12 44.3 4.7
1 -7 12 28.1 5.9
-2 7 -12 9.4 2.2
-2 7 -12 16.1 4.3
2 -7 12 3.8 4.2
-3 7 -12 6.3 2.3
-3 7 -12 7.1 3.8
4 6 -12 4.8 2.7
4 6 -12 1.4 2.8
-4 -6 12 1.8 1.6
3 6 -12 -3.6 1.8
3 6 -12 -3.3 2.4
-3 -6 12 -0.7 2.5
-3 -6 12 -5.3 2.4
2 6 -12 4.7 2.3
2 6 -12 3.1 4.3
-2 -6 12 0.9 2.6
-2 -6 12 -0.2 3.7
1 6 -12 -2.3 2.4
1 6 -12 2 1.8
-1 -6 12 2.6 2.9
-1 -6 12 -2.1 2.8
0 6 -12 -1.4 3.9
0 6 -12 1.1 1.7
0 -6 12 0.4 3.2
-1 6 -12 7 3.5
-1 6 -12 7.1 2.2
1 -6 12 2.6 3.7
-2 6 -12 10 3.6
-2 6 -12 7 2
2 -6 12 0.7 3.2
-3 6 -12 7.1 3.2
-3 6 -12 0.6 1.5
-3 6 -12 4.3 1.8
3 -6 12 1.8 4.1
4 5 -12 0.2 2.2
4 5 -12 0.7 2.3
-4 -5 12 -0.6 1.7
-4 -5 12 -1.1 1.3
3 5 -12 32.9 4.9
3 5 -12 42.6 5.4
-3 -5 12 39.4 4.7
-3 -5 12 23.9 4
-3 -5 12 25.8 4.1
2 5 -12 8.8 2.5
2 5 -12 7.6 3.1
-2 -5 12 7.9 2.8
-2 -5 12 8.6 2.9
1 5 -12 15.8 4
1 5 -12 13.2 2.9
-1 -5 12 16.6 3.5
-1 -5 12 17.7 4.2
0 5 -12 7.1 2.1
0 5 -12 11.9 3.6
0 -5 12 6.5 3.5
0 -5 12 8.9 3.4
-1 5 -12 104.29 8.1
-1 5 -12 96.19 6.1
-2 5 -12 14.7 4.1
-2 5 -12 8.9 2.1
2 -5 12 12.1 6.4
-3 5 -12 32.8 3.6
-3 5 -12 45 3.7
3 -5 12 32.9 5.9
-4 5 -12 1.8 2.5
-4 5 -12 0.9 1.2
4 -5 12 5.6 4.5
5 4 -12 21.1 3.9
5 4 -12 22.3 4.1
-5 -4 12 23.7 3.4
-5 -4 12 21.1 3.9
4 4 -12 13.2 3.1
4 4 -12 15.7 3.5
4 4 -12 13.4 4.1
-4 -4 12 15 3.2
3 4 -12 -1.3 1.9
3 4 -12 0 1.6
3 4 -12 -1.5 2.6
-3 -4 12 -1.1 1.8
-3 -4 12 0.6 1.7
-3 -4 12 -0.1 2
2 4 -12 7.1 2.6
2 4 -12 5.9 2
2 4 -12 10.1 3
2 4 -12 12.8 3.7
-2 -4 12 3 2.2
-2 -4 12 7.2 2.8
1 4 -12 17.6 3.1
1 4 -12 18.7 3.8
1 4 -12 18 4.1
1 4 -12 17.7 3
-1 -4 12 17.8 3.6
-1 -4 12 22.2 4.3
0 4 -12 7.8 2.9
0 4 -12 7.8 3.6
0 4 -12 4.7 1.8
0 -4 12 5.5 2.7
0 -4 12 8.7 3.2
-1 4 -12 0.6 1.1
-1 4 -12 0.1 2.1
1 -4 12 3.7 2.8
1 -4 12 0.4 2.6
-2 4 -12 221.78 11.5
2 -4 12 184.08 11.4
-3 4 -12 40.3 4
-3 4 -12 48.1 6.2
-3 4 -12 47.7 3
3 -4 12 32.6 5.9
-4 4 -12 4 2.9
-4 4 -12 -2.5 1.5
-4 4 -12 2.7 1.4
4 -4 12 -1.2 3.7
5 3 -12 4.3 4.8
5 3 -12 10.5 3.2
5 3 -12 14 3.3
-5 -3 12 16.5 3.4
4 3 -12 10.4 2.9
4 3 -12 6.2 2.4
4 3 -12 7.4 3.2
-4 -3 12 9.4 2.9
3 3 -12 6.4 2.3
3 3 -12 5.9 2.2
3 3 -12 1.9 2
3 3 -12 6.9 3
-3 -3 12 2.6 2.1
2 3 -12 39.8 4.7
2 3 -12 40.6 4.1
2 3 -12 36 5.3
2 3 -12 41.4 4.9
-2 -3 12 51.09 5.3
1 3 -12 2.8 1.6
1 3 -12 5.9 3.1
1 3 -12 2.2 2.1
-1 -3 12 8.3 2.8
-1 -3 12 2.4 2.2
0 3 -12 9.2 1.8
0 3 -12 6.9 2.7
0 3 -12 9.1 3.2
0 -3 12 7.2 2.6
0 -3 12 9.5 3.1
-1 3 -12 5.9 2.7
-1 3 -12 5.5 1.3
1 -3 12 7.4 3.1
1 -3 12 3.9 3.2
-2 3 -12 116.59 4.7
-2 3 -12 120.49 8.4
-2 3 -12 113.99 8.3
2 -3 12 118.29 9
-3 3 -12 16.1 3
-3 3 -12 15.9 2.4
-3 3 -12 21.7 4.3
3 -3 12 13.3 4
-4 3 -12 -3.5 1.3
-4 3 -12 1.4 1.3
-4 3 -12 1.5 2.7
4 -3 12 0.1 3.4
4 -3 12 0.3 3.4
-5 3 -12 2.1 1.8
-5 3 -12 0.7 4.4
5 2 -12 13.7 3
5 2 -12 25.2 4.1
5 2 -12 11.1 3.7
-5 -2 12 16.2 3.2
4 2 -12 14.1 2.9
4 2 -12 13.7 3.2
4 2 -12 11.2 2.8
-4 -2 12 11.2 2.7
3 2 -12 1.8 1.9
3 2 -12 -0.8 1
3 2 -12 0.2 1.6
3 2 -12 -1.3 1.2
-3 -2 12 -0.3 1.5
2 2 -12 0.3 1.4
2 2 -12 -0.1 0.8
2 2 -12 -0.4 1.7
2 2 -12 0.9 2.4
-2 -2 12 0 1.7
-2 -2 12 -0.4 1.8
-2 -2 12 -0.3 1.8
1 2 -12 2.8 2.6
1 2 -12 2.2 0.8
1 2 -12 1.3 1.3
-1 -2 12 0.3 2.1
-1 -2 12 3.8 2.6
0 2 -12 46.4 5.3
0 2 -12 47.6 3.4
0 -2 12 51.79 5.3
0 -2 12 47.6 5.2
-1 2 -12 617.14 22.4
1 -2 12 625.94 22.5
1 -2 12 634.14 22.5
-2 2 -12 6.5 1.9
-2 2 -12 10.3 3.5
-2 2 -12 10.5 3.2
2 -2 12 7.5 3.4
2 -2 12 9.7 4.9
-3 2 -12 2.6 1.6
-3 2 -12 5.5 1.5
-3 2 -12 4.2 2.7
3 -2 12 6.2 3.4
-4 2 -12 12.5 2.3
-4 2 -12 15 4
4 -2 12 8.9 2.3
4 -2 12 12 4.2
-5 2 -12 1.3 2.7
-5 2 -12 0.6 1.6
5 -2 12 5.3 4.1
5 1 -12 3.1 1.8
5 1 -12 -2.4 2.5
5 1 -12 1.9 2.3
-5 -1 12 0.6 1.6
4 1 -12 10.8 2.6
4 1 -12 7.2 2.5
4 1 -12 4.5 1.9
4 1 -12 13.6 2.8
-4 -1 12 8 2.3
3 1 -12 16.3 3.1
3 1 -12 13.9 2.3
3 1 -12 9.5 2.7
-3 -1 12 12.7 2.5
2 1 -12 0.1 1.4
2 1 -12 -1.4 1.9
2 1 -12 0.5 2.4
2 1 -12 0.1 0.9
-2 -1 12 0.5 1.3
-2 -1 12 -0.4 1.4
-2 -1 12 -0.1 1.4
1 1 -12 77.09 3.9
1 1 -12 72.39 4.9
1 1 -12 77.89 6.1
1 1 -12 71.99 6
-1 -1 12 83.59 4.6
-1 -1 12 73.39 5.3
-1 -1 12 74.99 5.5
0 1 -12 32.7 2.8
0 1 -12 33.2 4.7
0 1 -12 31.2 4.6
0 -1 12 28.5 4.5
0 -1 12 28.3 4.5
-1 1 -12 80.59 6.8
-1 1 -12 81.99 7.3
1 -1 12 86.19 6.9
1 -1 12 75.89 6.8
-2 1 -12 23.2 4.4
-2 1 -12 28.3 4.8
-2 1 -12 22.2 3.1
2 -1 12 24.7 4.7
2 -1 12 19 4.3
-3 1 -12 30.8 4
3 -1 12 34.9 5.6
-4 1 -12 -1.8 1.5
-4 1 -12 -1.8 1.2
-4 1 -12 0.5 2.4
4 -1 12 -0.2 2.8
4 -1 12 -2.6 1.5
-5 1 -12 -1.3 2.8
-5 1 -12 -0.6 1.5
-5 1 -12 -2.4 2.1
5 -1 12 -3.5 3.5
5 -1 12 2.9 2.3
-6 0 12 3.1 2.9
5 0 -12 4 2.5
5 0 -12 4.9 2.3
5 0 -12 3.4 1.6
-5 0 12 2.9 2
4 0 -12 4.3 2.4
4 0 -12 4.3 1.7
4 0 -12 2.8 2.2
4 0 -12 7.8 2.4
-4 0 12 4.2 1.9
3 0 -12 7.7 3.2
3 0 -12 8.2 1.9
3 0 -12 11.8 2.8
3 0 -12 14.5 2.9
-3 0 12 8.1 1.9
2 0 -12 98.09 6.2
2 0 -12 93.99 6.1
2 0 -12 97.99 5.2
2 0 -12 94.69 6.1
-2 0 12 92.89 5.1
-2 0 12 92.19 4.7
1 0 -12 169.48 7.9
1 0 -12 165.88 8.7
1 0 -12 173.78 8.7
-1 0 12 172.78 6.9
0 0 -12 86.29 6.4
0 0 -12 82.99 6.3
0 0 12 80.09 6.2
0 0 12 82.09 4
-1 0 -12 1264.47 39.3
-1 0 -12 1289.97 39.5
-1 0 -12 1227.48 37.8
1 0 12 1241.98 39
1 0 12 1189.98 39
-2 0 -12 167.18 8.3
-2 0 -12 181.18 10
-2 0 -12 169.28 9.5
2 0 12 134.59 9.4
2 0 12 172.18 9.9
-3 0 -12 19.9 4.3
-3 0 -12 19.5 3.5
3 0 12 13.8 4.2
3 0 12 16.8 1.9
-4 0 -12 14.1 6.3
-4 0 -12 3.8 2.1
4 0 12 10.8 4.2
4 0 12 10.7 1.9
-5 0 -12 4.9 2.3
-5 0 -12 4.7 2.9
5 0 12 2.8 4.2
5 -1 -12 63.39 6
5 -1 -12 54.59 4.4
-5 1 12 61.99 5.5
4 -1 -12 75.39 5.2
4 -1 -12 68.39 5.4
4 -1 -12 73.79 4.9
-4 1 12 78.09 5.3
3 -1 -12 1 1.8
3 -1 -12 -1.4 1.1
3 -1 -12 -1.2 1.8
3 -1 -12 -3.2 1.3
-3 1 12 0.8 1.4
2 -1 -12 4.1 2.1
2 -1 -12 3.9 1.6
2 -1 -12 9.4 2.6
2 -1 -12 4.7 2.4
-2 1 12 5.4 1.4
-2 1 12 3.8 2.2
1 -1 -12 -2.9 2
1 -1 -12 0.2 2.2
-1 1 12 0.5 1.5
-1 1 12 0.5 1
-1 1 12 -4.9 2.4
-1 1 12 0.9 2.1
0 -1 -12 255.37 11.7
0 -1 -12 272.67 12
0 1 12 246.18 10
0 1 12 249.68 8.1
0 1 12 255.57 11.2
-1 -1 -12 198.78 10.9
-1 -1 -12 201.78 9.5
-1 -1 -12 188.88 10.5
1 1 12 199.68 7.5
1 1 12 201.18 10.3
-2 -1 -12 1 2.2
-2 -1 -12 0.2 1.9
-2 -1 -12 0.5 2.6
2 1 12 1.9 3.3
2 1 12 0 2.3
-3 -1 -12 5.4 2.8
3 1 12 -0.2 2.6
-4 -1 -12 2.8 2.8
4 1 12 12.9 4.2
4 1 12 8.8 1.7
5 -2 -12 3.1 2.1
4 -2 -12 4.8 2
4 -2 -12 -0.1 1.9
-4 2 12 3.8 2.6
3 -2 -12 -0.9 2.9
3 -2 -12 2.9 1.9
3 -2 -12 2.6 1.5
-3 2 12 0.9 1.5
-3 2 12 0.4 2.1
2 -2 -12 0.8 2.1
2 -2 -12 1.2 1.9
-2 2 12 1.3 1.8
-2 2 12 -0.6 1.7
1 -2 -12 50.89 5.3
1 -2 -12 54.19 5.3
-1 2 12 46.3 4.5
-1 2 12 53.29 4.7
0 -2 -12 1592.64 48.8
0 -2 -12 1596.84 48.6
0 -2 -12 1650.93 49.3
0 2 12 1617.84 48.9
0 2 12 1579.34 47.9
-1 -2 -12 3.4 2.7
-1 -2 -12 2.2 1.5
1 2 12 3.9 1.6
1 2 12 1 3.1
1 2 12 3.1 2.4
-2 -2 -12 7.2 2.2
-2 -2 -12 5.1 2.7
2 2 12 7.4 3.3
-3 -2 -12 -0.8 4
3 2 12 3.6 3.2
-4 -2 -12 1 2.9
4 2 12 3.2 3.1
5 -3 -12 4.1 2.3
-5 3 12 8.7 3.6
4 -3 -12 12.7 2.7
4 -3 -12 13.8 3.3
4 -3 -12 12.4 4.5
-4 3 12 9.5 3.4
3 -3 -12 3 1.9
3 -3 -12 3.9 2.6
3 -3 -12 9.4 2.4
3 -3 -12 6.2 2.3
-3 3 12 8.6 3.1
2 -3 -12 4.4 2.6
2 -3 -12 5.7 2.3
2 -3 -12 1.6 1.8
-2 3 12 5.7 2.5
1 -3 -12 6.3 2.8
1 -3 -12 5 2
1 -3 -12 12.5 3.3
-1 3 12 13 2.8
-1 3 12 13.3 3
-1 3 12 8.4 3.2
0 -3 -12 37.3 5.7
0 -3 -12 39.7 5.6
0 3 12 46.1 4.5
0 3 12 47.4 6.2
0 3 12 44.7 5.3
-1 -3 -12 206.88 11.3
1 3 12 227.48 11.2
1 3 12 179.98 11
1 3 12 219.68 9.2
-2 -3 -12 10.6 3.4
2 3 12 17.7 3.8
2 3 12 13.2 3.8
-3 -3 -12 2.4 2.8
3 3 12 3.7 3.1
-4 -3 -12 2.4 2.7
4 3 12 2.6 3.4
5 -4 -12 4.8 2.3
-5 4 12 3.5 2.7
4 -4 -12 0.6 2.1
4 -4 -12 2.4 2.6
4 -4 -12 -1 2
4 -4 -12 5.9 3
-4 4 12 4.5 2.7
3 -4 -12 1.3 2.2
3 -4 -12 -0.9 2.3
3 -4 -12 -0.7 1.9
3 -4 -12 3 2.1
-3 4 12 0.4 2
2 -4 -12 13.7 3.4
2 -4 -12 9.7 3.3
2 -4 -12 7.4 2.4
2 -4 -12 9.6 2
-2 4 12 10 1.8
-2 4 12 6.9 2.9
1 -4 -12 33.9 5
1 -4 -12 26 4.7
-1 4 12 31.5 4.2
-1 4 12 34.6 4.9
-1 4 12 29.6 4.3
0 -4 -12 249.97 12.3
0 4 12 234.98 11.2
0 4 12 237.78 11.8
0 4 12 227.48 10.9
-1 -4 -12 11.5 3.5
1 4 12 12.3 3.5
1 4 12 11.9 3
-2 -4 -12 11.9 3.7
2 4 12 19.8 4.6
-3 -4 -12 -2.4 2.4
3 4 12 -0.5 2.6
4 -5 -12 -0.9 2.9
-4 5 12 2.3 2.8
3 -5 -12 -1 2.9
3 -5 -12 -5.2 1.9
3 -5 -12 -2.1 2.2
-3 5 12 3.7 2.5
2 -5 -12 5.4 2.7
2 -5 -12 0.7 3
2 -5 -12 0 1.6
-2 5 12 0 1.9
-2 5 12 0.4 1.6
-2 5 12 1.4 2.2
1 -5 -12 -3.6 2.8
-1 5 12 -2.6 2.8
-1 5 12 1.6 2.5
-1 5 12 -2.5 1.9
0 5 12 31 4.7
0 5 12 34.6 5.3
0 5 12 31.1 5.5
1 5 12 51.49 6.3
-2 -5 -12 1.6 3.1
2 5 12 3.6 3.2
3 5 12 2.8 3.1
-4 6 12 2.6 3
3 -6 -12 1.8 2.9
3 -6 -12 0.8 3.1
-3 6 12 2.1 2.8
2 -6 -12 1.2 3.3
2 -6 -12 10.1 2.1
-2 6 12 7.4 3.3
1 -6 -12 7.8 4
-1 6 12 14.3 4.5
-1 6 12 34.4 7
0 -6 -12 -1.5 3
0 6 12 -4 2.2
0 6 12 0.2 2.4
-1 -6 -12 4.6 3.5
1 6 12 2.5 3.1
2 6 12 2.7 3.3
-3 7 12 1.8 3.3
2 -7 -12 -3.7 2
-2 7 12 1.2 2.1
-2 7 12 2.7 3
-1 7 12 0.4 2.6
-1 7 12 -2.3 2.7
-1 7 12 -9.2 4.8
0 7 12 16.8 4.3
0 7 12 8.4 3.9
1 7 12 0.6 3.1
0 8 -13 -0.5 3.5
0 8 -13 -1.2 2.1
2 7 -13 18.8 4.4
2 7 -13 15.2 3.7
1 7 -13 13.2 4.2
1 7 -13 4.4 2.3
-1 -7 13 5 3.4
0 7 -13 6.4 3.3
0 7 -13 3 2.1
0 -7 13 2.4 3.5
-1 7 -13 19.1 4.9
-1 7 -13 15.9 2.9
1 -7 13 13.3 4.9
-2 7 -13 0.6 3.2
-2 7 -13 0.1 1.7
3 6 -13 1.1 2.5
3 6 -13 2.3 2.4
-3 -6 13 -4.1 2.7
-3 -6 13 0.1 2.6
-3 -6 13 -2.7 2.7
2 6 -13 -1.9 2.2
2 6 -13 0.5 1.9
-2 -6 13 -0.4 2.5
-2 -6 13 1.3 2.7
1 6 -13 2.7 2.9
1 6 -13 0.8 1.9
-1 -6 13 -2 3.1
0 6 -13 13.5 4.1
0 6 -13 11.5 2.6
0 -6 13 7.8 4.8
-1 6 -13 3.4 3.1
-1 6 -13 2.5 1.8
1 -6 13 1.1 3.3
-2 6 -13 1.2 1.6
-2 6 -13 6.5 3.3
2 -6 13 0.7 4.1
-3 6 -13 1.3 1.5
-3 6 -13 4 3.4
3 -6 13 -3.7 3.5
3 -6 13 -3.9 3.6
4 5 -13 -0.7 2
4 5 -13 3.5 3.7
-4 -5 13 2 2.1
3 5 -13 43.4 5.7
3 5 -13 28.3 4.3
-3 -5 13 28.1 4.2
-3 -5 13 39.3 4.7
-3 -5 13 32.6 4.6
2 5 -13 13.3 4
2 5 -13 4.9 2.5
2 5 -13 9.1 3.1
-2 -5 13 4.3 2.7
-2 -5 13 10.8 3.3
1 5 -13 1.4 2.5
1 5 -13 -0.2 1.6
-1 -5 13 -1.2 2.7
-1 -5 13 0.9 2.3
0 5 -13 188.08 9.5
0 5 -13 184.48 10.9
0 -5 13 195.18 11.4
-1 5 -13 9.3 2.2
-1 5 -13 8.9 4
1 -5 13 3.9 4
-2 5 -13 8.8 3.5
-2 5 -13 6.2 1.9
2 -5 13 7.2 3.7
-3 5 -13 0.5 1.5
-3 5 -13 0.1 2.7
-3 5 -13 -3.4 1.4
3 -5 13 -3.5 3
-4 5 -13 2.7 3.4
4 4 -13 2.4 2.6
4 4 -13 0.4 2.1
-4 -4 13 5.1 2.3
3 4 -13 3.3 3.1
3 4 -13 -0.4 1.8
3 4 -13 3.5 2.7
-3 -4 13 -0.3 2.3
-3 -4 13 1.8 1.8
-3 -4 13 4.9 2.1
2 4 -13 0.3 2.2
2 4 -13 1.5 2.8
2 4 -13 0.8 1.6
2 4 -13 -1.2 1.4
-2 -4 13 -0.3 2.1
-2 -4 13 -0.5 2
1 4 -13 -2.3 1.4
1 4 -13 1.5 3.3
1 4 -13 2.5 1.7
1 4 -13 1.3 2
-1 -4 13 -3.1 2.4
-1 -4 13 -2.6 1.9
0 4 -13 21 2.7
0 4 -13 15.4 2.7
0 4 -13 15.8 3.7
0 -4 13 21.3 4.5
-1 4 -13 9 1.8
-1 4 -13 9.1 3.2
1 -4 13 9.5 3.5
-2 4 -13 5.9 2.8
-3 4 -13 5.5 3
-3 4 -13 5.1 1.2
-3 4 -13 -1.6 1.5
3 -4 13 2.1 3.5
-4 4 -13 4.4 3.1
-4 4 -13 1.4 1.2
4 -4 13 -4.7 3.2
5 3 -13 3.4 2.5
5 3 -13 1.6 2.3
5 3 -13 -0.2 4
-5 -3 13 3.6 2.4
4 3 -13 17.8 3.5
4 3 -13 31.1 4.9
4 3 -13 28 4.3
-4 -3 13 23.4 3.7
3 3 -13 16.3 3.4
3 3 -13 12.7 2.9
-3 -3 13 12 3
2 3 -13 8.7 5
2 3 -13 4.6 1.7
2 3 -13 8.5 3.1
-2 -3 13 10.8 2.8
-2 -3 13 8.5 2.4
-2 -3 13 8.8 2.5
1 3 -13 74.29 5.2
1 3 -13 72.99 6.5
1 3 -13 80.29 7.8
-1 -3 13 71.59 6
-1 -3 13 81.39 6.3
0 3 -13 281.77 13.1
0 3 -13 292.27 10.8
0 3 -13 289.27 13.3
0 -3 13 275.87 12.7
0 -3 13 297.97 13.2
-1 3 -13 37.6 5.1
1 -3 13 28.7 4.8
1 -3 13 33.7 5.3
-2 3 -13 73.09 3.5
-2 3 -13 74.89 7.2
2 -3 13 81.49 7.9
-3 3 -13 8.7 6.5
-3 3 -13 9.9 1.9
-3 3 -13 4.7 2
3 -3 13 5.3 3.8
-4 3 -13 2.1 1.4
-4 3 -13 2.9 2.6
4 -3 13 3.3 3.8
5 2 -13 1.1 2
5 2 -13 1.2 2.2
-5 -2 13 0.6 1.9
4 2 -13 1.3 2.6
4 2 -13 0.5 1.8
4 2 -13 2 1.9
3 2 -13 7.3 2.5
3 2 -13 4 2.8
3 2 -13 8.1 1.8
3 2 -13 5.7 2.4
3 2 -13 8 2.2
-3 -2 13 7 2.2
2 2 -13 27 4.2
2 2 -13 25.7 3.6
2 2 -13 24.7 4
2 2 -13 25.4 2.3
-2 -2 13 25 3.3
-2 -2 13 22.1 3.3
-2 -2 13 30 3.6
1 2 -13 2.9 0.8
1 2 -13 6.3 2.9
1 2 -13 3.8 1.6
-1 -2 13 3.4 2.3
-1 -2 13 1.4 2.1
0 2 -13 0.7 1.1
0 -2 13 1.2 2.4
0 -2 13 -2.7 2.3
1 -2 13 178.18 13.5
1 -2 13 264.27 12.2
-2 2 -13 95.79 7.8
-2 2 -13 89.19 5.9
2 -2 13 90.29 7.7
-3 2 -13 1.3 1.5
-3 2 -13 4 1.5
-3 2 -13 10 3.4
3 -2 13 9.1 4.6
-4 2 -13 0.1 2.5
-4 2 -13 0.1 1.3
4 -2 13 2.1 3.6
4 -2 13 0.1 2.7
5 1 -13 2.1 3.2
5 1 -13 6.9 2.4
5 1 -13 9.2 2.2
-5 -1 13 6.1 2.5
4 1 -13 17.5 3.3
4 1 -13 18.6 2.9
4 1 -13 22.6 3.6
4 1 -13 17.8 3.2
-4 -1 13 20.7 3.3
3 1 -13 18 3.3
3 1 -13 26.1 3.6
3 1 -13 19 2.5
-3 -1 13 22.5 3.2
2 1 -13 5.8 2.6
2 1 -13 8.6 2.8
2 1 -13 6.4 2.2
2 1 -13 4.6 1.3
-2 -1 13 7.9 2.1
-2 -1 13 4.8 1.9
1 1 -13 34.7 2.7
1 1 -13 39.8 5
1 1 -13 36 3.5
1 1 -13 42.4 5
-1 -1 13 41.7 4.4
-1 -1 13 41.4 3.6
0 1 -13 64.99 6
0 1 -13 69.29 4.1
0 1 -13 65.99 6.3
0 -1 13 67.29 5.9
0 -1 13 72.39 5.9
-1 1 -13 414.26 17.1
1 -1 13 409.06 17.1
1 -1 13 415.66 16.8
-2 1 -13 1 1.6
-2 1 -13 3 2.9
2 -1 13 0.5 2.7
3 -1 13 -4.6 3.5
-4 1 -13 0.5 1.4
-4 1 -13 -1.6 1.8
-4 1 -13 2.4 2.4
4 -1 13 2.1 3.2
4 -1 13 -1.3 1.5
5 0 -13 6.1 2
5 0 -13 8.1 2.8
5 0 -13 1 2.1
-5 0 13 2.1 1.7
4 0 -13 -0.7 1.8
4 0 -13 3.4 2.4
4 0 -13 -2.4 2.9
-4 0 13 -0.6 1.4
3 0 -13 1.7 2.2
3 0 -13 2.1 1.4
3 0 -13 3.4 2
3 0 -13 -2.1 2
-3 0 13 2.1 1.6
2 0 -13 2.8 2.1
2 0 -13 4.6 2.4
2 0 -13 2.7 1.3
2 0 -13 2.4 1.8
-2 0 13 3.8 1.5
-2 0 13 3.6 1.6
-2 0 13 3.4 1.9
1 0 -13 7.6 2.8
1 0 -13 6.6 2.3
1 0 -13 10.6 3.1
-1 0 13 8.6 1.7
-1 0 13 10 2.6
-1 0 13 5.3 2.4
0 0 -13 386.36 16
0 0 -13 403.76 16.4
0 0 13 414.66 15.8
0 0 13 415.76 12.9
-1 0 -13 30.4 5
-1 0 -13 19.1 3.1
1 0 13 28 4.6
1 0 13 27.4 4.6
-2 0 -13 11.3 2.3
-2 0 -13 17.1 4.2
2 0 13 11.6 3.9
-3 0 -13 31.3 4.1
-3 0 -13 40 6.2
3 0 13 29.2 5.9
3 0 13 32.4 2.6
-4 0 -13 -0.3 3
4 0 13 0.7 1.5
4 0 13 4.2 3.4
5 -1 -13 4.3 2.2
5 -1 -13 7.8 2.2
-5 1 13 5 2.3
4 -1 -13 0.4 2.1
4 -1 -13 0.2 2.1
-4 1 13 0.7 1.7
3 -1 -13 2.4 2.1
3 -1 -13 3.6 2.1
3 -1 -13 1.6 2.2
3 -1 -13 4.6 1.9
-3 1 13 2.4 1.3
-3 1 13 3.5 2.2
2 -1 -13 17.3 3.4
2 -1 -13 16.8 2.5
2 -1 -13 23.3 3.9
2 -1 -13 18 3.4
-2 1 13 20.8 2.6
-2 1 13 21.3 3.8
1 -1 -13 3.1 2.2
1 -1 -13 4.4 2.6
-1 1 13 -0.4 1.7
-1 1 13 2.4 1
-1 1 13 -0.4 1.3
-1 1 13 -2.2 2.2
0 -1 -13 10.3 3.6
0 -1 -13 7.6 2.9
0 1 13 10.9 3.1
0 1 13 9.4 2.2
0 1 13 10.3 1.2
0 1 13 3.4 3
-1 -1 -13 112.49 8.2
-1 -1 -13 119.69 7.3
1 1 13 118.89 8.1
1 1 13 119.79 5.3
-2 -1 -13 32.7 5.4
-2 -1 -13 30 4.1
2 1 13 46.3 6.1
-3 -1 -13 3.8 3
3 1 13 5.1 3.3
-4 -1 -13 -1.6 2.9
4 1 13 1.4 3.1
5 -2 -13 0.9 2.1
5 -2 -13 4.4 1.9
5 -2 -13 1.3 2.1
4 -2 -13 0.7 1.9
4 -2 -13 3.1 2.5
-4 2 13 4.3 2.5
3 -2 -13 3 2.2
3 -2 -13 2.2 2
3 -2 -13 0.4 1.5
-3 2 13 2 1.6
-3 2 13 1.7 2.2
2 -2 -13 48.9 4.8
2 -2 -13 39.8 4.1
2 -2 -13 41.1 4.8
-2 2 13 40.4 4.5
-2 2 13 42 3.2
1 -2 -13 76.59 6.1
1 -2 -13 68.59 6.3
-1 2 13 68.29 5.9
-1 2 13 64.79 5.3
-1 2 13 76.59 5.3
0 -2 -13 384.86 16.2
0 -2 -13 388.76 16.7
0 2 13 409.96 14.7
0 2 13 399.56 15.6
-1 -2 -13 88.49 7.3
1 2 13 92.89 7.3
1 2 13 94.09 5.1
1 2 13 90.69 7.7
-2 -2 -13 3.2 2.8
2 2 13 7.6 3.3
2 2 13 7.7 1.7
-3 -2 -13 6.2 3.1
3 2 13 8.2 3.7
-4 -2 -13 2.3 3
4 2 13 6.9 3.5
5 -3 -13 3.7 2.2
-5 3 13 7.9 3.3
4 -3 -13 0.2 2.2
4 -3 -13 2.7 2.2
-4 3 13 0.4 2.2
3 -3 -13 5.6 2.5
3 -3 -13 -1.3 2.2
-3 3 13 1.3 2.3
2 -3 -13 2.3 2.4
2 -3 -13 1.5 2.5
2 -3 -13 -0.9 1.6
-2 3 13 0.5 1.9
1 -3 -13 78.19 6.9
1 -3 -13 86.99 6.9
1 -3 -13 75.29 6.3
-1 3 13 75.89 6.4
-1 3 13 83.39 5.7
-1 3 13 74.19 6
0 -3 -13 1.3 2.5
0 -3 -13 7.6 3.1
0 3 13 2 3.8
0 3 13 2.3 1.9
0 3 13 3.9 2.7
-1 -3 -13 17.8 4
1 3 13 22.7 3.2
1 3 13 21 4.1
1 3 13 8.9 4.3
-2 -3 -13 2.9 2.8
2 3 13 -0.6 4.4
-3 -3 -13 1.3 2.7
3 3 13 12 2.4
3 3 13 6.9 3.5
4 3 13 1.2 6.1
5 -4 -13 11.8 3.2
-5 4 13 3.9 2.7
4 -4 -13 0.3 2.6
4 -4 -13 -2.6 2.2
-4 4 13 4.6 3.1
3 -4 -13 2.5 2.9
3 -4 -13 -2.5 2.1
3 -4 -13 5.4 3.5
-3 4 13 1.7 2.6
2 -4 -13 -0.2 2.9
2 -4 -13 3.4 2.5
-2 4 13 0.9 1.8
1 -4 -13 459.35 17.9
1 -4 -13 359.46 17.3
-1 4 13 420.96 16.4
-1 4 13 442.06 17.3
-1 4 13 465.35 16.1
0 -4 -13 9 3.2
0 4 13 9.2 5.2
0 4 13 11.6 3.1
0 4 13 16.3 3.3
-1 -4 -13 0.6 2.8
1 4 13 6.6 2.5
1 4 13 6.8 3.1
-2 -4 -13 -3.8 2.6
2 4 13 4.7 3.1
2 4 13 -0.9 2
-3 -4 -13 -1.3 2.6
3 4 13 1.6 3.3
4 -5 -13 6 2.7
-4 5 13 2.6 2.8
3 -5 -13 0.1 2.7
3 -5 -13 -5.5 2.7
-3 5 13 -0.1 2.1
2 -5 -13 2 3.3
1 -5 -13 8.2 3.9
-1 5 13 15.3 3.6
-1 5 13 13.9 3.1
0 5 13 41.9 5.4
0 5 13 34.6 4.8
0 5 13 23.5 5.3
-1 -5 -13 1 3
1 5 13 1.4 2.3
1 5 13 1.1 2.6
-2 -5 -13 0.3 3
2 5 13 -0.9 2.8
3 -6 -13 2.1 3.7
-3 6 13 2.7 2.7
2 -6 -13 18.6 2.8
2 -6 -13 6.8 4
-2 6 13 27.9 5.1
-1 6 13 42.6 5.8
-1 6 13 54.49 5.6
0 -6 -13 3.6 3.7
0 6 13 2.3 3.2
1 6 13 7.3 3.3
1 6 13 0.8 3
-1 7 13 13.6 3.6
-1 7 13 8.9 3.7
0 7 13 5 3.9
2 7 -14 4.4 3.5
2 7 -14 9 3
1 7 -14 -0.8 2.1
1 7 -14 -1.4 2.9
-1 -7 14 -2.8 3.1
0 7 -14 7.6 3.5
0 -7 14 -2.9 3.5
-1 7 -14 5.5 3.5
-1 7 -14 3.5 2.2
1 -7 14 -2.9 3.8
3 6 -14 3.1 3.1
3 6 -14 -1.4 2.4
2 6 -14 0.2 2.4
2 6 -14 -1 2.4
-2 -6 14 -1.9 2.6
1 6 -14 1.3 1.9
1 6 -14 2 2.8
-1 -6 14 3.8 5.1
0 6 -14 9.7 3.8
0 6 -14 10.2 2.7
0 -6 14 12.6 4.1
-1 6 -14 -3 2.6
-1 6 -14 1 1.8
1 -6 14 5.2 4
-2 6 -14 -3.3 1.5
-2 6 -14 1.1 3.1
2 -6 14 0.9 3.6
4 5 -14 1.7 2.4
4 5 -14 1.3 2.6
3 5 -14 22.4 4
-3 -5 14 21.5 3.8
-3 -5 14 27.2 4.5
-3 -5 14 16.5 3.3
2 5 -14 17.7 3.4
2 5 -14 23.5 5.2
-2 -5 14 28.1 4.6
-2 -5 14 17.6 3.6
1 5 -14 4.9 4
1 5 -14 3.9 1.7
1 5 -14 2.5 1.9
-1 -5 14 1.1 2.5
-1 -5 14 5.8 3.3
0 5 -14 10.4 2.6
0 5 -14 8.6 3.6
0 5 -14 5.9 2.3
0 -5 14 9.7 3.8
-1 5 -14 11.1 3.7
-1 5 -14 14 2.1
-1 5 -14 9.6 2.3
1 -5 14 2.1 3.5
-2 5 -14 -1.8 1.6
-2 5 -14 4.1 3
2 -5 14 -0.7 3
-3 5 -14 -0.7 1.9
-3 5 -14 -0.6 1.5
-3 5 -14 -3.7 2.6
3 -5 14 -1.5 3.6
4 4 -14 -1.1 2.2
4 4 -14 4.7 2.7
-4 -4 14 -0.5 1.7
3 4 -14 -1.7 1.6
3 4 -14 -1.5 1.9
-3 -4 14 -1.2 2
-3 -4 14 -3.7 1.7
2 4 -14 0.4 2.2
2 4 -14 -1.2 1.7
2 4 -14 -0.1 1.7
-2 -4 14 -1.7 2
1 4 -14 29.5 3.5
1 4 -14 26.3 4.6
1 4 -14 20.7 3.4
-1 -4 14 20.6 3.9
-1 -4 14 31.1 4.9
0 4 -14 4.9 2.1
0 4 -14 3.5 2.6
0 4 -14 1.6 1.5
0 -4 14 1.3 2.9
0 -4 14 1.1 2.9
-1 4 -14 0.3 1.1
-1 4 -14 1.3 2.8
1 -4 14 -2.3 2.7
-2 4 -14 3.4 3
2 -4 14 2.9 3.3
-3 4 -14 -2.3 2.3
-3 4 -14 -1.1 0.8
3 -4 14 -0.5 3.2
-4 4 -14 1.4 3.9
-4 4 -14 -0.3 1.2
5 3 -14 -1.4 3.5
4 3 -14 19.3 3.3
4 3 -14 30.5 4.6
4 3 -14 22.4 3.8
-4 -3 14 23.7 3.9
3 3 -14 23.1 3.9
3 3 -14 11.7 3.5
3 3 -14 17.5 3.4
-3 -3 14 23.4 3.7
2 3 -14 5.1 2
2 3 -14 2.7 2
2 3 -14 4.4 3.1
2 3 -14 1.6 2
-2 -3 14 8 2.3
-2 -3 14 5.9 2.5
-2 -3 14 0.5 1.9
1 3 -14 234.88 11.9
1 3 -14 216.38 11.8
1 3 -14 235.08 10.3
-1 -3 14 215.48 10.8
-1 -3 14 248.48 11.2
0 3 -14 12.3 3.5
0 3 -14 6.5 4.4
0 3 -14 9.7 2.3
0 -3 14 4.4 4.7
0 -3 14 7.5 3.1
-1 3 -14 3.9 2.8
1 -3 14 2.8 2.9
-2 3 -14 21.1 1.9
2 -3 14 11.3 5.8
-3 3 -14 -2.5 1.5
-3 3 -14 0.1 1
-3 3 -14 -1.7 2.4
3 -3 14 3.1 3.6
-4 3 -14 13.7 3.9
-4 3 -14 10.2 1.9
4 -3 14 9.4 4.2
5 2 -14 4.3 2.4
5 2 -14 -0.2 2.3
-5 -2 14 1.8 2.1
4 2 -14 3.5 2.1
4 2 -14 4.1 3.5
4 2 -14 -1.8 1.5
-4 -2 14 -0.9 1.7
3 2 -14 -1.2 2.8
3 2 -14 1.9 1.8
3 2 -14 4.5 2.4
3 2 -14 -1.3 1.1
-3 -2 14 -1.6 1.5
2 2 -14 -2.3 3.7
2 2 -14 5.8 1.9
2 2 -14 2.4 1.8
2 2 -14 3 2.1
-2 -2 14 8.4 2.3
-2 -2 14 0.6 1.9
-2 -2 14 3.3 3
1 2 -14 20.4 1.9
1 2 -14 26.3 3.3
1 2 -14 19.9 4.2
-1 -2 14 15.6 3.1
-1 -2 14 26.3 4.4
0 2 -14 -0.7 0.7
0 2 -14 0.4 1.2
0 2 -14 2.4 2.8
0 -2 14 -1.9 2.1
0 -2 14 0.8 2.3
1 -2 14 5.1 3.2
1 -2 14 0.4 2.9
-2 2 -14 5.7 3
-2 2 -14 3.3 2.5
2 -2 14 6.3 3.1
-3 2 -14 3.1 1.4
-3 2 -14 2.6 2.5
-3 2 -14 1.6 1.8
3 -2 14 0.1 3.4
-4 2 -14 -0.9 1.4
-4 2 -14 1.3 2.7
4 -2 14 -2.3 2.1
4 -2 14 2.1 3.9
5 1 -14 4.1 2.4
5 1 -14 1.5 2
-5 -1 14 7.2 2.4
4 1 -14 1.8 2
4 1 -14 9.5 2.5
4 1 -14 3.4 1.8
4 1 -14 5.7 2.4
-4 -1 14 0.5 2.2
3 1 -14 1.9 2.4
3 1 -14 2.5 1.4
3 1 -14 3.8 2
-3 -1 14 0.9 1.7
2 1 -14 135.59 7.8
2 1 -14 129.09 6
2 1 -14 129.49 8.1
2 1 -14 139.49 8.4
-2 -1 14 132.09 6.3
-2 -1 14 133.89 6.7
1 1 -14 209.08 13.1
1 1 -14 204.78 8.9
1 1 -14 211.78 9.3
1 1 -14 200.68 10.6
-1 -1 14 221.18 8.6
-1 -1 14 203.68 9.6
0 1 -14 5.9 3.1
0 1 -14 9.2 3.2
0 -1 14 3.6 2.4
0 -1 14 1.4 2.6
-1 1 -14 20.5 4.4
1 -1 14 21.8 4.3
1 -1 14 14.9 3.7
-2 1 -14 29.7 4
-2 1 -14 38.2 5.9
2 -1 14 42.9 6.2
-3 1 -14 1 1.8
3 -1 14 7.2 3.7
-4 1 -14 3.3 2.7
-4 1 -14 2.1 1.5
4 -1 14 -1.8 3
4 -1 14 -1.1 1.8
5 0 -14 -1.5 2.2
5 0 -14 1.5 1.8
5 0 -14 0.4 2.1
-5 0 14 0.5 2
4 0 -14 3.9 2.3
4 0 -14 6.1 1.9
4 0 -14 -2 2
4 0 -14 2.1 2.6
-4 0 14 2.2 1.8
3 0 -14 9.7 2.7
3 0 -14 8 2.8
3 0 -14 8.8 2
3 0 -14 11.5 3
-3 0 14 7.3 2.1
2 0 -14 24.4 4
2 0 -14 27.6 4.3
2 0 -14 26.5 4.4
2 0 -14 21.8 2.8
-2 0 14 22.1 3
-2 0 14 24.2 3
-2 0 14 21.8 3.3
1 0 -14 1 2.3
1 0 -14 0.6 2.7
-1 0 14 -0.9 1.1
-1 0 14 -2.9 2.2
-1 0 14 1.9 2.2
0 0 -14 116.99 8.2
0 0 -14 119.39 8.1
0 0 14 121.69 5.2
0 0 14 125.29 7.8
-1 0 -14 78.29 7
-1 0 -14 72.19 5.8
1 0 14 83.49 6.8
1 0 14 67.09 6.7
-2 0 -14 3.1 2.8
-2 0 -14 2.5 2
2 0 14 3.7 3.1
-3 0 -14 4.9 3.3
3 0 14 4.5 3.3
3 0 14 5.6 1.3
-4 0 -14 9.4 4
4 0 14 15.7 4.9
5 -1 -14 6.6 2.4
5 -1 -14 2 3
5 -1 -14 5.4 2.5
-5 1 14 6.4 2.4
4 -1 -14 3.5 2.5
4 -1 -14 6.1 2.5
-4 1 14 2.9 1.9
3 -1 -14 -0.6 1.5
3 -1 -14 -1.9 2.1
3 -1 -14 0.2 2.1
-3 1 14 1 1.4
2 -1 -14 105.49 7.3
2 -1 -14 94.19 5.9
2 -1 -14 107.69 7.2
-2 1 14 105.79 5.3
-2 1 14 110.09 7.2
1 -1 -14 60.19 5.8
-1 1 14 60.09 4.9
-1 1 14 52.99 4.6
-1 1 14 55.89 5.7
-1 1 14 58.09 3.4
0 -1 -14 282.97 13.3
0 -1 -14 281.27 13.5
0 1 14 275.97 8.9
0 1 14 284.27 11.3
0 1 14 290.17 12.6
-1 -1 -14 13.9 3.5
1 1 14 8.5 3.8
1 1 14 19.9 4.1
1 1 14 20.3 2.2
2 1 14 0.7 2.5
-3 -1 -14 4.6 3.1
3 1 14 5.4 3.2
4 1 14 -4.2 3.4
5 -2 -14 -2.6 2
5 -2 -14 2.7 2.2
4 -2 -14 2.7 2.3
4 -2 -14 -1.4 2
-4 2 14 -1 2
3 -2 -14 2.7 2.3
3 -2 -14 1.9 2.3
3 -2 -14 2.1 2.1
-3 2 14 -0.1 1.4
-3 2 14 4.1 2.4
2 -2 -14 1.5 2.6
2 -2 -14 -1.2 2.3
2 -2 -14 0.5 1.5
-2 2 14 -1.6 1.7
-2 2 14 -0.3 1
1 -2 -14 150.48 8.8
1 -2 -14 134.39 9
-1 2 14 144.19 7.6
-1 2 14 136.29 8.2
-1 2 14 142.69 8.1
0 -2 -14 15.4 3.9
0 -2 -14 10.4 3.3
0 2 14 11.7 2.9
0 2 14 12.1 4
0 2 14 9.3 3.1
-1 -2 -14 7.6 3.1
1 2 14 8 2.1
1 2 14 6.5 3
1 2 14 6.8 4.3
2 2 14 22.5 2.4
2 2 14 21.9 5
-3 -2 -14 -1.4 2.6
3 2 14 9.1 3.9
5 -3 -14 6.9 2.9
-5 3 14 -0.4 2.1
4 -3 -14 1.3 2.4
-4 3 14 1.9 2.6
3 -3 -14 1.5 2.6
3 -3 -14 2.9 2.5
-3 3 14 2.8 2.6
2 -3 -14 11.2 3.2
2 -3 -14 3.9 2.7
-2 3 14 10.2 3.1
1 -3 -14 47 5.9
-1 3 14 44.9 4.9
-1 3 14 44.4 4.7
-1 3 14 31.8 5.4
0 -3 -14 59.79 6.6
0 3 14 68.69 5.3
0 3 14 49 6.9
0 3 14 65.19 6
-1 -3 -14 3.6 3.1
1 3 14 6.3 3.1
1 3 14 9.6 2.2
2 3 14 3.3 2.8
2 3 14 6.6 3.3
-3 -3 -14 -3.5 2.6
3 3 14 -0.9 1.4
3 3 14 1.4 3.2
4 -4 -14 1.4 2.7
4 -4 -14 -1.9 2.4
-4 4 14 -1.4 2.7
3 -4 -14 -1.9 2.4
3 -4 -14 5.4 2.7
-3 4 14 1.2 1.9
2 -4 -14 31.2 7.7
-2 4 14 33.4 5
-1 4 14 71.39 5.7
-1 4 14 52.79 6.2
-1 4 14 59.99 5.8
0 -4 -14 4.3 3.9
0 4 14 13 4.4
0 4 14 14.7 3.5
0 4 14 16.6 3.3
-1 -4 -14 -1.8 2.7
1 4 14 1.2 1.9
1 4 14 6 5.2
-2 -4 -14 -0.8 2.9
2 4 14 1.8 2.9
2 4 14 0.7 2
3 4 14 2.6 4.2
3 4 14 0.9 2.1
3 -5 -14 -0.2 3.3
-3 5 14 2 2.6
2 -5 -14 3.3 3.3
-2 5 14 5.1 2.9
1 -5 -14 0.6 3.1
-1 5 14 12.8 3.1
-1 5 14 1.3 4
-1 5 14 8 3
0 -5 -14 -0.4 2.8
0 5 14 8 3
0 5 14 7.7 3
-1 -5 -14 2.6 3.4
1 5 14 -2 1.9
1 5 14 0.9 2.6
2 5 14 2.5 2.7
2 5 14 3.3 3.6
-2 6 14 66.49 6.9
-1 6 14 2.3 2.6
-1 6 14 3.5 2.9
0 6 14 -0.5 2.4
0 6 14 1.8 2.7
1 6 14 5.2 3.9
1 6 14 -0.1 2.7
1 7 -15 -2.7 2.7
1 7 -15 2 4.5
0 7 -15 2 2.3
0 7 -15 3.7 3.5
2 6 -15 3.4 2.3
2 6 -15 10.8 4
-2 -6 15 6.7 3.3
1 6 -15 6.3 2.7
1 6 -15 11.1 3.7
-1 -6 15 0.9 3.6
0 6 -15 0.2 2.8
0 6 -15 1 1.9
0 6 -15 7 2.3
0 -6 15 0.8 3.3
-1 6 -15 -0.1 3.2
-1 6 -15 1.5 1.6
-1 6 -15 -1.8 1.8
1 -6 15 3.1 3.9
-2 6 -15 6.4 3.7
-2 6 -15 3.4 2
3 5 -15 14.7 4
3 5 -15 8.4 2.8
-3 -5 15 5 3.2
-3 -5 15 1.9 2.7
-3 -5 15 9.4 3.2
2 5 -15 4.9 2.4
2 5 -15 6.4 3.2
-2 -5 15 4 2.9
1 5 -15 9 2.4
1 5 -15 14.9 3.8
1 5 -15 5.8 3
-1 -5 15 4.8 3.1
0 5 -15 11.5 3.7
0 5 -15 18.5 2.9
0 5 -15 12.1 2.8
0 -5 15 12 4.4
-1 5 -15 5 1.5
-1 5 -15 3.9 2.1
-1 5 -15 0.7 2.8
1 -5 15 2.5 3.7
-2 5 -15 -3.5 1.5
-2 5 -15 3.8 3
2 -5 15 -1.3 3.2
-3 5 -15 1 3.8
4 4 -15 2.1 2.8
4 4 -15 -3.5 1.8
3 4 -15 -1 1.8
3 4 -15 -0.4 2.3
-3 -4 15 1.6 2.6
2 4 -15 0.4 1.8
2 4 -15 0.7 1.9
2 4 -15 -1.5 1.9
-2 -4 15 -2.6 2.2
-2 -4 15 -2.3 2.1
1 4 -15 15.7 4.1
1 4 -15 13.5 3.1
1 4 -15 18.2 3.4
-1 -4 15 15.6 4
0 4 -15 10.3 2.3
0 4 -15 7.3 4.9
0 4 -15 4.7 2.1
0 -4 15 2.9 3.1
-1 4 -15 3.7 2.5
1 -4 15 1.1 3.1
-2 4 -15 3.4 2.8
2 -4 15 -0.3 3
-3 4 -15 0.5 2.7
3 -4 15 -4.8 2.7
4 3 -15 26.7 4
-4 -3 15 24.6 3.8
3 3 -15 20.2 4
3 3 -15 15.3 3.3
2 3 -15 2.6 2.1
2 3 -15 -1 2.1
2 3 -15 0.3 2.1
-2 -3 15 1.4 2.1
-2 -3 15 1.4 2.2
-2 -3 15 1 2.3
1 3 -15 1.1 2.4
1 3 -15 2.4 1.7
-1 -3 15 -0.8 2.5
-1 -3 15 -0.6 2.4
0 3 -15 21.3 4.4
0 3 -15 24.5 3.9
0 -3 15 16.9 4
0 -3 15 16.2 4
1 -3 15 -1.8 2.5
-2 3 -15 -0.9 1.7
-2 3 -15 -0.1 2.6
2 -3 15 0.1 3
-3 3 -15 1.8 1.2
-3 3 -15 -0.6 1.9
-3 3 -15 1.1 2.9
3 -3 15 -0.5 3.4
4 2 -15 2.1 2.2
4 2 -15 0.1 1.9
4 2 -15 -5 2.5
-4 -2 15 0.9 1.8
3 2 -15 -2 1.6
3 2 -15 0.3 1.9
3 2 -15 -0.6 1.3
3 2 -15 -4.2 2.6
-3 -2 15 -1.1 1.6
2 2 -15 26.1 4.3
2 2 -15 26.7 2.5
2 2 -15 30.6 4.3
2 2 -15 26.3 4.5
-2 -2 15 22.9 3.3
-2 -2 15 26.7 3.7
1 2 -15 5.9 2
1 2 -15 1.5 3
1 2 -15 0.4 0.9
1 2 -15 1.8 2.2
-1 -2 15 1.2 2.4
-1 -2 15 0.6 2.2
-1 -2 15 -0.6 1.9
0 2 -15 0.1 0.7
0 2 -15 -0.4 1.2
0 -2 15 -1.4 2.4
0 -2 15 3.1 2.9
1 -2 15 27.6 5
-2 2 -15 -2 1.6
-2 2 -15 4.1 2.8
2 -2 15 -1.1 2.8
-3 2 -15 1.8 1.4
-3 2 -15 1 2.7
3 -2 15 1.5 3.5
3 -2 15 1 3.5
-4 2 -15 52.59 5.7
5 1 -15 -2.7 6.5
5 1 -15 11.2 2.9
5 1 -15 9.4 3.3
-5 -1 15 5.6 2.5
4 1 -15 6.6 5.3
4 1 -15 9.6 2.6
4 1 -15 4.3 1.7
4 1 -15 3.7 2.3
-4 -1 15 6.5 2.2
3 1 -15 -0.7 1.2
3 1 -15 5.2 4.6
-3 -1 15 2.3 1.9
2 1 -15 93.69 6.6
2 1 -15 77.99 6.9
2 1 -15 83.99 4.8
2 1 -15 90.99 7.2
-2 -1 15 86.89 5.5
-2 -1 15 88.09 5.2
-2 -1 15 83.99 5.5
1 1 -15 57.69 6.2
1 1 -15 46.3 4.3
1 1 -15 51.99 3.5
1 1 -15 59.39 6.3
-1 -1 15 59.49 5.3
-1 -1 15 49.1 3.9
0 1 -15 -1.1 2.6
0 -1 15 3.4 2.9
0 -1 15 -0.3 2.3
-1 1 -15 36 5.7
1 -1 15 37.9 5.6
-2 1 -15 10 4
2 -1 15 6.3 3.5
3 -1 15 21.1 5
3 -1 15 15 2.3
-4 1 -15 7.1 2.1
-4 1 -15 14 4.7
5 0 -15 -1.2 2.2
5 0 -15 0.7 2
5 0 -15 -2.4 2.6
-5 0 15 -0.5 2
4 0 -15 -4.1 2.4
4 0 -15 0.2 2
4 0 -15 -1.8 2.6
-4 0 15 3.4 2.5
3 0 -15 -1.9 2.3
3 0 -15 3 2.3
3 0 -15 2.7 2.5
-3 0 15 1.8 1.5
2 0 -15 21.7 2.9
2 0 -15 21.6 3.8
2 0 -15 30.5 5.6
2 0 -15 22.1 4.1
-2 0 15 21.2 2.8
-2 0 15 17.5 3
-2 0 15 19.8 3
1 0 -15 -1.8 2.2
1 0 -15 -0.2 2.5
-1 0 15 1 1
-1 0 15 -3.8 2.3
-1 0 15 1.2 1.9
0 0 -15 2.5 2.7
0 0 15 9.3 3.1
0 0 15 3 1.3
0 0 15 1 2.7
-1 0 -15 0.4 2.5
1 0 15 1 2.7
1 0 15 -1.8 1.2
-2 0 -15 5 3.2
2 0 15 4.9 2.9
-3 0 -15 9.4 3.9
3 0 15 22.8 5.3
5 -1 -15 5.3 2.4
-5 1 15 1.3 2.2
4 -1 -15 5.6 2.6
4 -1 -15 2.9 2.6
-4 1 15 3.1 1.8
3 -1 -15 57.69 5.8
3 -1 -15 49.4 4.5
-3 1 15 55.79 4.5
2 -1 -15 40.1 4.1
2 -1 -15 41.1 5.1
2 -1 -15 45.6 5.6
-2 1 15 43.9 3.4
-2 1 15 41 4.7
1 -1 -15 5.5 2.8
1 -1 -15 8.7 3.3
-1 1 15 2.3 1.7
-1 1 15 -2.3 2.8
-1 1 15 3.8 2.2
-1 1 15 2.9 1.2
0 -1 -15 -0.1 2.3
0 1 15 3.3 2.5
0 1 15 2.5 0.8
0 1 15 1.7 3.3
0 1 15 2.4 1.5
-1 -1 -15 15.8 4
1 1 15 29.7 5
-2 -1 -15 4.6 3.1
2 1 15 7.3 3.5
-3 -1 -15 -0.5 3.1
3 1 15 1.8 3.2
4 -2 -15 5.3 2.6
4 -2 -15 0.5 2.4
-4 2 15 6 2.9
3 -2 -15 11.1 3.2
-3 2 15 15.7 3.9
2 -2 -15 3 2.7
2 -2 -15 3 2.9
-2 2 15 2.6 2.2
1 -2 -15 34.9 6.1
1 -2 -15 21.9 4.3
-1 2 15 17.5 3.8
-1 2 15 32.3 4.2
-1 2 15 26.4 4.2
0 -2 -15 17.4 4.1
0 2 15 32.8 8.7
0 2 15 22.3 4.2
0 2 15 23.8 3.7
-1 -2 -15 3.3 3
1 2 15 6.1 1.9
1 2 15 1.6 2.7
-2 -2 -15 1.9 2.9
2 2 15 6.1 3.4
-3 -2 -15 10.3 3.8
4 -3 -15 1.7 3.2
4 -3 -15 5.2 2.7
-4 3 15 4.3 2.9
3 -3 -15 61.19 5.9
-3 3 15 42.8 5.7
2 -3 -15 20.1 5.4
-2 3 15 13 3.4
-1 3 15 55.29 5.4
-1 3 15 56.29 6.3
-1 3 15 70.89 5.7
0 3 15 24.5 4.3
0 3 15 19.2 4.8
0 3 15 25.8 3.6
-1 -3 -15 -1 2.7
1 3 15 3.1 4.8
1 3 15 -1.4 1.6
-2 -3 -15 -1.2 2.7
2 3 15 11 3.9
3 3 15 2.3 3.6
4 -4 -15 0.6 3.7
-4 4 15 0.9 2.7
3 -4 -15 1.9 2.8
-3 4 15 -1.3 2.4
-2 4 15 37 7.2
1 -4 -15 1.1 3.1
-1 4 15 4.4 2.4
-1 4 15 1.6 2.2
-1 4 15 -0.2 3
0 -4 -15 -3.5 2.7
0 4 15 1.7 2
0 4 15 2.3 2.3
-1 -4 -15 -1.4 3
1 4 15 1.7 1.9
1 4 15 -1.3 2.3
2 4 15 1.7 2.9
2 4 15 1.9 1.9
-3 5 15 5.2 3.3
-2 5 15 14.3 4.1
-1 5 15 10.1 3.2
-1 5 15 12.9 3.7
0 -5 -15 2.2 3.3
0 5 15 -0.1 4.5
0 5 15 1.9 2
1 5 15 5.9 3.4
1 5 15 3.8 2.6
-1 6 15 0.3 2.9
1 6 -16 0.9 2.3
1 6 -16 5.1 3.5
0 6 -16 8.4 2.4
0 6 -16 3.6 3.5
0 6 -16 0.2 1.9
0 -6 16 0.5 3.3
-1 6 -16 -1.5 1.9
-1 6 -16 1.7 2.1
-1 6 -16 -1.3 3.3
3 5 -16 38 7.1
2 5 -16 -0.2 2
2 5 -16 0.8 2.8
-2 -5 16 0.3 2.8
1 5 -16 10.1 2.7
1 5 -16 4 2.3
1 5 -16 7.5 3.4
-1 -5 16 6.7 4.3
0 5 -16 -2.4 2.5
0 5 -16 4.5 1.8
0 5 -16 1.1 2
0 -5 16 -2.6 3.1
-1 5 -16 1.9 2.2
-1 5 -16 2 2.9
1 -5 16 -3.9 3.4
-2 5 -16 1.7 1.9
-2 5 -16 -1.7 3.1
3 4 -16 9.6 2.9
3 4 -16 15.8 4
-3 -4 16 5.3 2.6
2 4 -16 36.4 5.7
2 4 -16 40.4 5.6
-2 -4 16 35.9 5
1 4 -16 7.4 3.3
1 4 -16 8.2 2.6
1 4 -16 1.4 2
-1 -4 16 8.6 3.3
-1 -4 16 1.6 3.2
0 4 -16 -0.4 1.4
0 4 -16 -3.3 2.3
0 4 -16 -0.1 2.3
-1 4 -16 10.2 3.9
1 -4 16 9 3.8
-2 4 -16 4.1 3.2
2 -4 16 1.3 3.7
4 3 -16 6.9 2.9
4 3 -16 3.3 2.4
3 3 -16 14.9 3.8
3 3 -16 11.1 3.1
2 3 -16 4 2.5
2 3 -16 4.1 2.4
2 3 -16 1.7 1.9
-2 -3 16 -2.4 2.2
-2 -3 16 3 2.5
-2 -3 16 2.9 2.5
1 3 -16 9.9 3.4
1 3 -16 16.3 3
-1 -3 16 19 3.9
0 3 -16 19 2.9
0 3 -16 15.2 4.1
0 -3 16 13 3.9
-1 3 -16 0 2.2
1 -3 16 -1.1 2.9
-2 3 -16 5.2 3.2
2 -3 16 3.7 3.4
-3 3 -16 -0.8 2.9
-3 3 -16 -1.2 1
4 2 -16 1.6 2.2
4 2 -16 2 2.5
-4 -2 16 2.5 1.9
3 2 -16 5.3 2.7
3 2 -16 7.2 1.8
3 2 -16 7.7 2.4
-3 -2 16 5.5 2.5
2 2 -16 7.9 2.3
2 2 -16 5 1.4
2 2 -16 7.7 2.8
-2 -2 16 3.8 1.8
-2 -2 16 6 2.4
-2 -2 16 2.9 2.4
1 2 -16 16.2 3.1
1 2 -16 18.2 3.8
1 2 -16 14.5 1.7
-1 -2 16 10.3 2.9
-1 -2 16 15.7 3.9
-1 -2 16 12.4 2.8
0 2 -16 -0.5 0.8
0 -2 16 1.3 2.7
0 -2 16 1.3 2.5
-1 2 -16 8.6 3.3
1 -2 16 8.7 5.5
-2 2 -16 10.8 3.8
2 -2 16 7 3.9
-3 2 -16 22.7 2.8
-3 2 -16 26.5 5.2
3 -2 16 19.1 5.1
4 1 -16 0.6 3
4 1 -16 3.8 2.5
4 1 -16 6.3 2.8
-4 -1 16 9.2 2.6
3 1 -16 0.3 1.5
-3 -1 16 0.9 1.5
2 1 -16 1.5 2.1
2 1 -16 -0.1 3
2 1 -16 -3.7 2.9
2 1 -16 1 1.3
-2 -1 16 -3 2.9
-2 -1 16 -2.9 2.3
1 1 -16 7.3 3.3
1 1 -16 4.5 1.4
1 1 -16 7 2.5
-1 -1 16 1.5 2.7
-1 -1 16 2.4 2.4
-1 -1 16 4.4 1.6
0 1 -16 4 3.1
0 -1 16 2.5 2.7
0 -1 16 0.7 1.5
0 -1 16 2.2 3
-1 1 -16 7.7 3.7
1 -1 16 6.2 3.5
-2 1 -16 -0.4 3.2
2 -1 16 2.6 3.3
3 -1 16 0.6 1.8
3 -1 16 4.9 4
4 0 -16 -0.3 1.8
4 0 -16 -4 2.8
-4 0 16 -3.5 1.5
3 0 -16 2.3 2.9
3 0 -16 6 3.2
3 0 -16 -0.7 1.4
-3 0 16 1.2 1.5
2 0 -16 -2 1
2 0 -16 2.9 2.8
2 0 -16 3.4 3
-2 0 16 0.5 1.8
-2 0 16 -2.5 2.2
-2 0 16 1.6 1.4
1 0 -16 3.7 3.1
1 0 -16 -1.6 1.1
-1 0 16 0.2 2.9
-1 0 16 1.1 1.3
-1 0 16 2.1 2.2
0 0 -16 18.2 4.2
0 0 16 28 4.7
0 0 16 20.4 2.4
-1 0 -16 7.3 3.2
1 0 16 7 1.5
1 0 16 5.9 3.3
-2 0 -16 6.3 3.3
2 0 16 5 3.5
3 0 16 66.19 8.2
4 -1 -16 -3.1 2.9
-4 1 16 -5 2.5
-3 1 16 15.7 2.7
2 -1 -16 28.9 4.9
2 -1 -16 15.2 3.5
2 -1 -16 18.7 2.9
1 -1 -16 -1.7 2.2
-1 1 16 1.2 2.2
-1 1 16 -0.4 3.1
-1 1 16 0.2 1.1
0 -1 -16 5.4 3.1
0 1 16 5.8 3
0 1 16 8.7 3.9
-1 -1 -16 3.4 3.1
1 1 16 14.8 4.5
-2 -1 -16 6.4 3.4
2 1 16 5.5 3.4
3 1 16 9 4.1
4 -2 -16 12.8 3.1
3 -2 -16 3 2.8
3 -2 -16 10.5 3
-3 2 16 7.5 2.9
2 -2 -16 -0.3 2.3
-2 2 16 2.3 2.2
1 -2 -16 3.5 2.8
-1 2 16 2.3 1.9
-1 2 16 0.7 2.3
-1 2 16 -0.2 3.3
0 -2 -16 -0.1 2.7
0 2 16 0.6 2.4
0 2 16 0.3 1.5
0 2 16 -5.5 3.7
-1 -2 -16 -2.7 2.6
1 2 16 -1.4 2.5
1 2 16 1.1 1.3
2 2 16 43.1 6.7
4 -3 -16 28.1 5.8
-4 3 16 6.9 3.7
3 -3 -16 -1.2 2.8
-3 3 16 2.6 2.2
2 -3 -16 0.8 2.8
-2 3 16 0.5 1.9
1 -3 -16 -3.3 2.8
-1 3 16 -1.6 1.6
-1 3 16 0 2.2
-1 3 16 -2.3 3.1
0 -3 -16 4.7 3.4
0 3 16 10 3.3
0 3 16 6.9 2.4
-1 -3 -16 -0.1 2.9
1 3 16 -1.1 2.4
1 3 16 4.1 1.7
2 3 16 1.6 3
2 3 16 7.2 2.4
-3 4 16 -1.1 2.4
2 -4 -16 -3.5 2.6
-2 4 16 3.7 2.5
1 -4 -16 -4 2.5
-1 4 16 4.2 2.7
-1 4 16 -2 4
-1 4 16 3 2.5
0 -4 -16 -0.5 3.1
0 4 16 2.1 2.8
0 4 16 -0.4 1.8
1 4 16 -0.7 2.7
1 4 16 1 1.9
-2 5 16 3.9 3.2
-1 5 16 1.6 2.8
-1 5 16 3.6 2.5
0 5 16 -1.1 1.9
0 5 16 0.9 2.7
2 5 -17 10.4 3.9
1 5 -17 5.9 2.6
1 5 -17 16.7 3.7
1 5 -17 13.9 4.5
-1 -5 17 6.9 3.5
0 5 -17 2.4 3
0 5 -17 0.1 2.1
0 5 -17 5.1 2.2
0 -5 17 -3.1 3.5
-1 5 -17 5.9 3.3
-1 5 -17 4.1 2.3
3 4 -17 27.9 5.7
2 4 -17 13.7 3.3
2 4 -17 10.7 3.6
-2 -4 17 5.1 3.3
-2 -4 17 4.4 2.8
-2 -4 17 3.9 2.8
1 4 -17 1.3 2.2
1 4 -17 2.6 2.1
1 4 -17 8.9 3.4
-1 -4 17 0.9 3.2
0 4 -17 2.2 1.8
0 4 -17 5.8 3.5
0 4 -17 2.8 2.1
0 -4 17 0.7 3.3
-1 4 -17 15.3 4.4
1 -4 17 4.6 3.6
-2 4 -17 51.99 7.6
3 3 -17 4 4.1
3 3 -17 -4.4 2.1
-3 -3 17 1.6 1.9
2 3 -17 11.1 3.3
2 3 -17 2.8 2.5
-2 -3 17 1 2.7
-2 -3 17 8.3 2.9
-2 -3 17 -2.9 2.4
1 3 -17 2.9 1.7
1 3 -17 0.5 2.4
-1 -3 17 0.2 2.8
-1 -3 17 -0.3 2.6
0 3 -17 1.7 1.8
0 3 -17 -1.1 2.8
-1 3 -17 1.9 2.9
1 -3 17 -0.1 2.9
-2 3 -17 6.1 3.5
2 -3 17 6.6 3.9
3 2 -17 19.5 4.2
3 2 -17 13.5 3.2
3 2 -17 14.6 2.4
-3 -2 17 14.5 3
2 2 -17 23.8 4.6
2 2 -17 27.3 4.1
2 2 -17 20.4 2.6
-2 -2 17 19.1 2.9
-2 -2 17 14.6 3
1 2 -17 3.9 3.8
1 2 -17 0 1.9
-1 -2 17 -0.6 2.8
-1 -2 17 0.5 2
-1 -2 17 -2.5 2.5
0 2 -17 17.1 4.2
0 2 -17 10 1.5
0 -2 17 12.2 3.7
-1 2 -17 22.2 4.7
1 -2 17 10.8 3.9
-2 2 -17 0 3.1
2 -2 17 -3.7 2.9
4 1 -17 13.4 3.4
4 1 -17 2.3 2.7
-4 -1 17 6.4 2.4
3 1 -17 -2 1.7
-3 -1 17 1.4 1.6
2 1 -17 -3.7 2.1
2 1 -17 4.5 3.4
2 1 -17 -1.8 1.1
-2 -1 17 1.5 1.7
-2 -1 17 0.5 2.5
-2 -1 17 -0.1 2.4
1 1 -17 9.6 1.9
1 1 -17 17.2 4.6
-1 -1 17 12 2.1
-1 -1 17 5.1 3
-1 -1 17 10.5 3.1
0 1 -17 0.3 2.9
0 -1 17 0.4 1.4
0 -1 17 1.9 2.8
-1 1 -17 -4.9 2.6
1 -1 17 1.5 3.1
-2 1 -17 -2.6 3.5
2 -1 17 1.9 3.1
4 0 -17 6.2 3
-4 0 17 9 2.7
3 0 -17 0.4 2.9
-3 0 17 0.6 1.6
2 0 -17 -1.9 2.8
2 0 -17 -1.2 1.6
-2 0 17 0.3 2
-2 0 17 3.4 1.5
1 0 -17 6.7 3.4
1 0 -17 -1.6 1.3
-1 0 17 -1.3 1.3
-1 0 17 -0.6 2.3
-1 0 17 -4.4 3.2
0 0 -17 7.5 3.5
0 0 17 13.5 1.9
0 0 17 1.6 3.9
0 0 17 9.8 3.6
-1 0 -17 9.9 3.7
1 0 17 16.9 2
1 0 17 17.8 4.3
-2 0 -17 4.9 3.8
2 0 17 16.5 4.7
3 -1 -17 -2.2 2.7
-3 1 17 0.6 1.6
2 -1 -17 -2.2 2.4
2 -1 -17 -0.4 1.7
-2 1 17 2.1 1.5
-1 1 17 2.1 2.3
-1 1 17 -1.3 1.1
-1 1 17 -2.8 3.1
0 -1 -17 0.8 3.1
0 1 17 2.6 2.7
-1 -1 -17 4.2 3.4
1 1 17 0.1 2.7
-2 -1 -17 3.7 3.7
2 1 17 5.3 3.4
3 -2 -17 -5 2.5
-3 2 17 2.7 2.6
2 -2 -17 -1.9 2.8
-2 2 17 -0.1 2
1 -2 -17 1.9 3.1
-1 2 17 12.2 2.9
-1 2 17 1.8 3.7
-1 2 17 9 2.9
0 -2 -17 -2 2.8
0 2 17 8.9 3.4
0 2 17 4.9 2.2
-1 -2 -17 2.5 3.1
1 2 17 8.7 3.6
1 2 17 7.5 3.4
2 2 17 27.5 5.5
-3 3 17 3.8 2.9
2 -3 -17 1.7 3
-2 3 17 -2.2 2
-1 3 17 -4.8 3.7
-1 3 17 -2.1 2.2
0 -3 -17 -1 2.7
0 3 17 5.5 3.3
0 3 17 3.8 2.3
1 3 17 -1.3 2.8
1 3 17 4.8 1.7
-2 4 17 2.1 2.4
-1 4 17 -0.1 2.7
-1 4 17 1.3 2.6
0 4 17 5.7 2.4
0 4 17 -2 2.6
2 4 -18 2.6 3.6
1 4 -18 -0.9 2.5
1 4 -18 2.3 2.5
1 4 -18 4.8 2.6
-1 -4 18 0.6 3.6
0 4 -18 6.1 3.5
0 4 -18 4.9 2.1
0 4 -18 -0.3 2.1
0 -4 18 -3.4 3.3
-1 4 -18 1.6 3.4
2 3 -18 13.5 4.1
2 3 -18 12.1 3.4
-2 -3 18 4.7 2.4
-2 -3 18 -2 3
-2 -3 18 6.2 2.9
1 3 -18 3.9 2.4
1 3 -18 7.3 3.3
-1 -3 18 1.1 3.3
-1 -3 18 3.2 2.6
-1 -3 18 -3.1 3.7
0 3 -18 5 3.1
0 -3 18 -5.3 2.7
-1 3 -18 62.09 7.6
1 -3 18 45.7 7.3
3 2 -18 12.8 2.4
3 2 -18 15.4 4
3 2 -18 9.7 3
2 2 -18 -1.9 1.3
2 2 -18 0.3 2.8
-2 -2 18 2.9 2
-2 -2 18 -1.8 2.3
1 2 -18 -3.5 2.2
1 2 -18 1 1.1
1 2 -18 4.3 2.7
-1 -2 18 -3.9 3
-1 -2 18 -0.9 2.7
-1 -2 18 1.4 1.8
0 2 -18 8.1 1.4
0 2 -18 8 3.4
0 -2 18 9.4 3.5
-1 2 -18 57.39 7
1 -2 18 53.29 7.1
-2 2 -18 32 6.7
-2 2 -18 26.6 2.8
3 1 -18 3.3 1.9
3 1 -18 -0.2 2.4
-3 -1 18 1.2 1.9
2 1 -18 -2.3 1.3
-2 -1 18 -1.1 2.1
-2 -1 18 1.7 1.9
1 1 -18 7.8 1.8
1 1 -18 5.8 3.5
-1 -1 18 4.4 2.8
-1 -1 18 4.7 3.3
-1 -1 18 6.3 2
0 1 -18 -3 2.9
0 -1 18 3 1.6
0 -1 18 -5.2 2.9
-1 1 -18 8 4.1
1 -1 18 12.1 4.1
1 -1 18 3.3 2
-3 0 18 13.6 2.7
2 0 -18 -0.1 3.7
-2 0 18 1.3 1.4
1 0 -18 7.9 3.7
1 0 -18 5.6 2
-1 0 18 8.5 1.7
-1 0 18 -1.9 3.7
-1 0 18 6.6 2.8
0 0 -18 15.8 4.4
0 0 18 24.9 2.8
0 0 18 24.4 4.6
1 0 18 -4 2.4
-3 1 18 0 1.7
2 -1 -18 1.6 3.1
-2 1 18 -1.7 1.3
1 -1 -18 0.5 2.9
-1 1 18 -7.8 3.7
-1 1 18 0.6 2.4
-1 1 18 1.1 2.4
0 -1 -18 4.8 3.7
0 1 18 0 2.7
-1 -1 -18 -0.5 3.2
1 1 18 3.6 3.4
1 -2 -18 -1.4 2.8
-1 2 18 0.8 2.7
-1 2 18 9.4 2.9
0 -2 -18 -1.5 3.1
0 2 18 1 4.7
1 2 18 4.5 3.4
-2 3 18 1.8 2.3
-1 3 18 0.2 1.9
0 3 18 -2.1 3
0 3 18 -1.4 1.7
1 3 -19 -0.6 3.1
0 3 -19 9 4.5
2 2 -19 -1.7 1.4
2 2 -19 -0.3 3.1
1 2 -19 0.2 2.5
-1 -2 19 -0.4 1.7
-1 -2 19 -3.4 2.7
0 2 -19 3.2 3.1
0 -2 19 2.6 2.2
0 -2 19 -0.4 2.7
2 1 -19 5 1.5
1 1 -19 -2.3 1.4
1 1 -19 -4.7 3.2
-1 -1 19 -1 2.6
-1 -1 19 -1 1.6
-1 -1 19 2.2 4.1
0 1 -19 55.69 4
0 -1 19 54.09 7
2 0 -19 -2.2 1.5
-2 0 19 1.1 1.6
1 0 -19 1.5 1.8
-1 0 19 3.4 1.5
-1 0 19 -2.1 2.4
0 0 19 16.5 2.1
0 0 19 11.4 3.8
-1 1 19 5.3 3.1
